# bitcoin dns seeds and whois results
IP Address|ASN|BGP Prefix|CC|Registry|Allocated|AS Name
103.85.39.172|134090|103.85.36.0/22|AU|apnic|2017-02-06|XINTEGRATION-AS-AP X INTEGRATION PTY LTD, AU
104.188.8.132|7018|104.176.0.0/12|US|arin|2014-08-12|ATT-INTERNET4, US
109.194.27.222|51645|109.194.16.0/20|RU|ripencc|2009-10-27|IRKUTSK-AS, RU
116.203.143.6|24940|116.203.0.0/16|DE|ripencc|2011-01-17|HETZNER-AS, DE
118.172.100.38|23969|118.172.96.0/20|TH|apnic|2007-10-08|TOT-NET TOT Public Company Limited, TH
122.222.160.190|2519|122.222.0.0/16|JP|apnic|2006-08-02|VECTANT ARTERIA Networks Corporation, JP
128.197.189.187|111|128.197.0.0/16|US|arin|1987-02-04|BOSTONU-AS, US
13.113.224.85|16509|13.112.0.0/14|US|arin|2016-08-09|AMAZON-02, US
131.213.242.50|2527|131.213.0.0/16|JP|apnic|1989-01-18|SO-NET Sony Network Communications Inc., JP
132.147.62.253|11776|132.147.60.0/22|US|arin|2014-09-10|ATLANTICBB-JOHNSTOWN, US
136.35.169.237|16591|136.35.160.0/20|US|arin|2015-10-06|GOOGLE-FIBER, US
141.136.222.21|13046|141.136.222.0/24|HR|ripencc|2011-06-29|ASN-ISKON HEP, HR
15.185.151.207|16509|15.185.0.0/16|US|arin|2021-01-28|AMAZON-02, US
151.252.193.245|197897|151.252.192.0/22|BG|ripencc|2012-08-23|PETKOM, BG
155.93.208.206|37680|155.93.208.0/20|ZA|afrinic|2016-02-04|COOL-IDEAS, ZA
157.90.106.242|24940|157.90.0.0/16|DE|ripencc|1996-12-16|HETZNER-AS, DE
158.140.237.185|133579|158.140.237.0/24|NZ|apnic|1992-03-10|MYREPNZ-AS-AP MYREPUBLIC LIMITED, NZ
159.149.133.227|137|159.149.0.0/16|IT|ripencc|1992-06-15|ASGARR Consortium GARR, IT
162.0.226.225|22612|162.0.226.0/24|US|arin|2020-04-03|NAMECHEAP-NET, US
165.22.113.168|14061|165.22.112.0/20|US|arin|2018-10-16|DIGITALOCEAN-ASN, US
165.22.227.235|14061|165.22.224.0/20|US|arin|2018-10-16|DIGITALOCEAN-ASN, US
169.0.168.95|37611|169.0.0.0/15|ZA|afrinic|2015-07-01|Afrihost, ZA
172.105.51.235|63949|172.105.32.0/19|US|arin|2015-06-19|LINODE-AP Linode, LLC, US
175.142.91.202|4788|175.142.64.0/18|MY|apnic|2010-01-08|TMNET-AS-AP TM Net, Internet Service Provider, MY
175.43.241.166|4837|175.42.0.0/15|CN|apnic|2009-12-15|CHINA169-BACKBONE CHINA UNICOM China169 Backbone, CN
176.10.136.245|8473|176.10.128.0/17|SE|ripencc|2011-05-18|BAHNHOF www.bahnhof.net, SE
176.173.166.231|5410|176.128.0.0/10|FR|ripencc|2011-07-06|BOUYGTEL-ISP, FR
176.215.255.127|51645|176.215.224.0/19|RU|ripencc|2011-09-28|IRKUTSK-AS, RU
178.79.84.139|3212|178.79.64.0/18|SI|ripencc|2010-05-07|TELEMACH Broadband Access & Carrier Services, SI
18.166.212.138|16509|18.166.0.0/15|US|arin|2019-10-07|AMAZON-02, US
182.171.246.142|2527|182.168.0.0/14|JP|apnic|2010-04-07|SO-NET Sony Network Communications Inc., JP
184.154.94.219|32475|184.154.0.0/16|US|arin|2010-06-21|SINGLEHOP-LLC, US
185.145.128.21|204196|185.145.128.0/22|NL|ripencc|2016-04-01|ABELOHOST, NL
185.17.143.220|48757|185.17.140.0/22|RU|ripencc|2013-01-30|TRUSTINFO TrustInfo, Moscow, Russia, RU
185.17.184.25|60781|185.17.184.0/22|NL|ripencc|2013-01-31|LEASEWEB-NL-AMS-01 Netherlands, NL
185.88.229.254|20963|185.88.228.0/22|FO|ripencc|2015-02-19|NEMAFAROE, FO
186.61.146.33|22927|186.60.0.0/14|AR|lacnic|2009-07-16|Telefonica de Argentina, AR
188.166.122.56|14061|188.166.64.0/18|US|ripencc|2009-06-05|DIGITALOCEAN-ASN, US
188.225.33.191|9123|188.225.33.0/24|RU|ripencc|2009-06-22|TIMEWEB-AS, RU
188.226.138.37|14061|188.226.128.0/17|US|ripencc|2009-07-09|DIGITALOCEAN-ASN, US
192.243.215.107|63297|192.243.214.0/23|CA|arin|2015-05-14|PACIFIC-SERVERS, CA
194.147.113.201|21232|194.147.113.0/24|CH|ripencc|1993-09-01|GGAMAUR, CH
198.12.14.135|40065|198.12.14.0/24|US|arin|2012-10-29|CNSERVERS, US
200.6.250.234|14754|200.6.224.0/19|GT|lacnic|2005-02-23|Telgua, GT
201.210.177.231|8048|201.210.160.0/19|VE|lacnic|2005-08-09|CANTV Servicios, Venezuela, VE
207.255.193.47|11776|207.255.193.0/24|US|arin|2004-06-14|ATLANTICBB-JOHNSTOWN, US
211.233.9.195|3786|211.233.0.0/18|KR|apnic|2000-09-08|LGDACOM LG DACOM Corporation, KR
212.231.224.97|15704|212.230.0.0/15|ES|ripencc|2000-09-14|AS15704, ES
212.93.114.22|24921|212.93.114.0/24|LV|ripencc|1999-11-24|LMT-3G Riga, Latvia, LV
213.133.108.178|24940|213.133.96.0/19|DE|ripencc|2002-05-23|HETZNER-AS, DE
213.174.156.72|39572|213.174.128.0/19|NL|ripencc|2008-01-17|ADVANCEDHOSTERS-AS, NL
217.11.240.4|21430|217.11.240.0/23|CZ|ripencc|2001-06-22|WIA-AS, CZ
217.92.55.246|3320|217.80.0.0/12|DE|ripencc|2000-10-26|DTAG Internet service provider operations, DE
218.35.171.231|7482|218.35.128.0/18|TW|apnic|2003-10-24|APOL-AS Asia Pacific On-line Service Inc., TW
24.101.212.110|27364|24.101.192.0/19|US|arin|2008-03-07|ACS-INTERNET, US
3.238.134.107|14618|3.224.0.0/12|US|arin|2018-06-25|AMAZON-AES, US
31.132.17.56|57294|31.132.16.0/20|CZ|ripencc|2011-06-16|INTERNET_EXPERT_, CZ
31.134.121.223|56668|31.134.120.0/21|UA|ripencc|2011-04-21|SIMNET-UA-AS Kiev, Ukraine, UA
31.16.210.55|3209|31.16.0.0/14|DE|ripencc|2011-03-24|VODANET International IP-Backbone of Vodafone, DE
31.31.18.51|1547|31.31.0.0/19|MD|ripencc|2011-03-16|IDK-NETWORK, MD
34.139.174.129|15169|34.139.0.0/16|US|arin|2021-01-08|GOOGLE, US
35.82.222.134|16509|35.80.0.0/12|US|arin|2019-04-15|AMAZON-02, US
37.34.249.83|42961|37.34.240.0/20|KW|ripencc|2012-01-03|GPRS-AS ZAIN, KW
41.96.153.149|36947|41.96.0.0/16|DZ|afrinic|2009-05-04|ALGTEL-AS, DZ
42.112.164.196|18403|42.112.128.0/18|VN|apnic|2011-02-10|FPT-AS-AP FPT Telecom Company, VN
45.61.147.176|23470|45.61.147.0/24|US|arin|2015-01-02|RELIABLESITE, US
46.19.137.74|51852|46.19.136.0/21|PA|ripencc|2010-11-15|PLI-AS, PA
46.229.238.187|29405|46.229.224.0/20|SK|ripencc|2011-02-21|VNET-AS, SK
46.246.85.163|42708|46.246.0.0/17|SE|ripencc|2011-01-27|PORTLANE www.portlane.com, SE
47.108.24.191|37963|47.108.0.0/16|CN|apnic|1989-01-06|ALIBABA-CN-NET Hangzhou Alibaba Advertising Co.,Ltd., CN
47.198.204.108|5650|47.196.0.0/14|US|arin|2015-08-28|FRONTIER-FRTR, US
47.91.77.30|45102|47.91.64.0/20|US|arin|2015-05-18|ALIBABA-CN-NET Alibaba US Technology Co., Ltd., CN
5.166.204.168|42682|5.166.204.0/22|RU|ripencc|2012-07-25|ERTH-NNOV-AS, RU
5.81.226.135|2856|5.81.0.0/16|GB|ripencc|2012-06-13|BT-UK-AS BTnet UK Regional network, GB
5.9.104.23|24940|5.9.0.0/16|DE|ripencc|2012-04-25|HETZNER-AS, DE
5.9.7.23|24940|5.9.0.0/16|DE|ripencc|2012-04-25|HETZNER-AS, DE
5.94.55.38|30722|5.88.0.0/13|IT|ripencc|2012-06-19|VODAFONE-IT-ASN, IT
50.39.133.157|27017|50.39.128.0/17|US|arin|2010-09-24|ZIPLY-FIBER-LEGACY-ASN, US
50.53.250.162|27017|50.53.0.0/16|US|arin|2010-09-24|ZIPLY-FIBER-LEGACY-ASN, US
51.159.34.107|12876|51.158.0.0/15|FR|ripencc|1993-09-01|Online SAS, FR
51.89.115.255|16276|51.89.0.0/16|FR|ripencc|1993-09-01|OVH, FR
54.215.194.229|16509|54.215.192.0/18|US|arin|2014-10-23|AMAZON-02, US
61.239.91.250|9269|61.239.64.0/18|HK|apnic|2003-11-10|HKBN-AS-AP Hong Kong Broadband Network Ltd., HK
62.28.190.194|15525|62.28.0.0/16|PT|ripencc|2006-06-08|MEO-EMPRESAS, PT
64.252.55.252|7018|64.252.0.0/18|US|arin|2000-01-04|ATT-INTERNET4, US
65.60.188.115|12083|65.60.188.0/24|US|arin|2002-11-01|WOW-INTERNET, US
68.0.185.250|22773|68.0.128.0/18|US|arin|2001-11-12|ASN-CXA-ALL-CCI-22773-RDC, US
69.137.140.197|7922|69.136.0.0/13|US|arin|2003-04-24|COMCAST-7922, US
70.66.248.170|6327|70.66.248.0/22|CA|arin|2004-06-18|SHAW, CA
71.115.238.229|701|71.115.128.0/17|US|arin|2005-01-18|UUNET, US
71.86.60.238|20115|71.86.56.0/21|US|arin|2005-05-19|CHARTER-20115, US
72.132.204.234|20001|72.132.0.0/16|US|arin|2005-08-02|TWC-20001-PACWEST, US
77.105.87.97|42621|77.105.64.0/18|FI|ripencc|2006-12-05|LPOK-AS, FI
78.46.79.17|24940|78.46.0.0/15|DE|ripencc|2007-04-16|HETZNER-AS, DE
79.116.8.218|57269|79.116.0.0/16|RO|ripencc|2007-05-29|DIGISPAINTELECOM, ES
79.137.67.110|16276|79.137.0.0/17|FR|ripencc|2007-10-18|OVH, FR
79.230.75.203|3320|79.192.0.0/10|DE|ripencc|2007-06-06|DTAG Internet service provider operations, DE
79.77.182.183|9105|79.76.0.0/15|GB|ripencc|2007-06-19|TISCALI-UK TalkTalk Communications Limited, GB
8.210.214.87|45102|8.210.128.0/17|SG|apnic|1992-12-01|ALIBABA-CN-NET Alibaba US Technology Co., Ltd., CN
80.112.125.10|33915|80.112.64.0/18|NL|ripencc|2001-07-25|TNF-AS, NL
80.208.230.170|212531|80.208.224.0/21|LT|ripencc|2001-12-12|INTERNETO-VIZIJA, LT
80.255.8.93|201011|80.255.0.0/20|DE|ripencc|2009-04-16|NETZBETRIEB-GMBH, DE
81.63.187.165|3303|81.63.128.0/17|CH|ripencc|2002-12-17|SWISSCOM Swisscom Switzerland Ltd, CH
82.165.241.50|8560|82.165.0.0/16|DE|ripencc|2003-08-06|IONOS-AS This is the joint network for IONOS, Fasthosts, Arsys, 1&1 Mail and Media and 1&1 Telecom. Formerly known as 1&1 Internet SE., DE
82.66.76.67|12322|82.64.0.0/14|FR|ripencc|2003-04-03|PROXAD, FR
83.137.254.168|8680|83.137.248.0/21|JE|ripencc|2004-06-23|SURE-INTERNATIONAL-LIMITED, GB
85.146.110.87|50266|85.146.0.0/17|NL|ripencc|2004-10-06|TMOBILE-THUIS, NL
89.103.44.216|16019|89.103.0.0/16|CZ|ripencc|2006-02-24|VODAFONE-CZ-AS, CZ
89.191.99.44|20910|89.191.96.0/19|LV|ripencc|2006-06-16|BALTKOM-AS, LV
89.236.101.52|30798|89.236.64.0/18|FI|ripencc|2006-06-14|TNNET-AS TNNet Oy Main network, FI
89.238.77.110|34240|89.238.64.0/18|DE|ripencc|2006-07-21|MANITU, DE
89.88.62.190|5410|89.80.0.0/12|FR|ripencc|2006-02-23|BOUYGTEL-ISP, FR
91.127.218.255|6855|91.127.0.0/16|SK|ripencc|2006-10-24|SK-TELEKOM Slovak Telekom T-Mobile CZ, SK
91.134.145.202|16276|91.134.0.0/16|FR|ripencc|2006-10-30|OVH, FR
92.249.178.227|20845|92.249.128.0/17|HU|ripencc|2007-11-15|DIGICABLE, HU
93.43.197.247|12874|93.43.0.0/16|IT|ripencc|2008-02-25|FASTWEB, IT
94.176.238.212|212531|94.176.232.0/21|LT|ripencc|2008-08-14|INTERNETO-VIZIJA, LT
95.165.8.182|25513|95.165.0.0/16|RU|ripencc|2009-01-27|ASN-MGTS-USPD, RU
96.75.92.49|7922|96.64.0.0/11|US|arin|2008-02-21|COMCAST-7922, US
