# bitcoin dns seeds and whois results
IP Address|ASN|BGP Prefix|CC|Registry|Allocated|AS Name
103.213.115.102|24440|103.213.115.0/24|PK|apnic|2016-04-04|CYBERNET-APII Cyber Internet Services Pakistan, PK
104.166.89.122|46261|104.166.64.0/19|US|arin|2014-08-12|QUICKPACKET, US
104.60.247.230|7018|104.48.0.0/12|US|arin|2014-05-06|ATT-INTERNET4, US
109.157.79.123|2856|109.144.0.0/12|GB|ripencc|2009-08-06|BT-UK-AS BTnet UK Regional network, GB
109.255.6.79|6830|109.255.0.0/17|IE|ripencc|2009-12-14|LIBERTYGLOBAL Liberty Global formerly UPC Broadband Holding, aka AORTA, NL
116.14.152.202|9506|116.14.128.0/17|SG|apnic|2007-03-27|SINGTEL-FIBRE Singtel Fibre Broadband, SG
13.125.222.163|16509|13.125.0.0/16|US|arin|2016-08-09|AMAZON-02, US
13.127.108.110|16509|13.126.0.0/15|US|arin|2016-08-09|AMAZON-02, US
13.209.5.125|16509|13.209.0.0/16|US|arin|2019-10-01|AMAZON-02, US
13.57.192.196|16509|13.57.0.0/16|US|arin|2020-08-05|AMAZON-02, US
13.71.136.69|8075|13.64.0.0/11|US|arin|2015-03-26|MICROSOFT-CORP-MSN-AS-BLOCK, US
136.62.1.115|16591|136.62.0.0/20|US|arin|2015-10-06|GOOGLE-FIBER, US
143.110.224.56|14061|143.110.224.0/20|US|arin|2020-01-17|DIGITALOCEAN-ASN, US
144.76.111.133|24940|144.76.0.0/16|DE|ripencc|1990-11-16|HETZNER-AS, DE
144.76.139.34|24940|144.76.0.0/16|DE|ripencc|1990-11-16|HETZNER-AS, DE
148.251.69.13|24940|148.251.0.0/16|DE|ripencc|1993-09-01|HETZNER-AS, DE
149.28.233.196|20473|149.28.224.0/20|US|arin|2018-05-04|AS-CHOOPA, US
150.140.159.221|5408|150.140.128.0/17|GR|ripencc|1984-01-01|GR-NET www.grnet.gr, GR
152.169.255.224|7303|152.168.0.0/15|AR|lacnic|2014-04-22|Telecom Argentina S.A., AR
155.93.208.206|37680|155.93.208.0/20|ZA|afrinic|2016-02-04|COOL-IDEAS, ZA
157.138.20.22|137|157.138.0.0/16|IT|ripencc|2004-04-07|ASGARR Consortium GARR, IT
161.35.84.235|14061|161.35.80.0/20|US|arin|2019-07-30|DIGITALOCEAN-ASN, US
161.97.129.139|51167|161.97.128.0/19|DE|ripencc|1992-06-23|CONTABO, DE
162.0.226.225|22612|162.0.226.0/24|US|arin|2020-04-03|NAMECHEAP-NET, US
171.6.213.47|45758|171.6.0.0/16|TH|apnic|2011-03-07|TTBP-AS-AP Triple T Broadband Public Company Limited, TH
173.225.53.22|46537|173.225.53.0/24|US|arin|2010-01-26|ELMDC, US
176.10.136.245|8473|176.10.128.0/17|SE|ripencc|2011-05-18|BAHNHOF www.bahnhof.net, SE
176.37.99.111|39608|176.37.0.0/16|UA|ripencc|2011-05-20|LANETUA-AS, UA
178.128.105.25|14061|178.128.96.0/20|US|ripencc|2010-03-03|DIGITALOCEAN-ASN, US
178.79.84.139|3212|178.79.64.0/18|SI|ripencc|2010-05-07|TELEMACH Broadband Access & Carrier Services, SI
18.181.27.197|16509|18.180.0.0/15|US|arin|2019-10-07|AMAZON-02, US
18.224.199.60|16509|18.224.0.0/14|US|arin|2019-10-07|AMAZON-02, US
182.253.84.71|17451|182.253.84.0/24|ID|apnic|2010-05-10|BIZNET-AS-AP BIZNET NETWORKS, ID
185.104.180.7|48881|185.104.180.0/22|RO|ripencc|2015-06-15|DATA-NODE-AS, RO
185.180.196.74|14576|185.180.196.0/24|EE|ripencc|2016-12-06|HOSTING-SOLUTIONS, US
185.185.42.6|62240|185.185.42.0/24|US|ripencc|2017-01-10|CLOUVIDER Clouvider - Global ASN, GB
185.82.17.243|15943|185.82.16.0/22|DE|ripencc|2014-12-22|WTNET-AS wilhelm.tel GmbH, DE
186.90.49.5|8048|186.90.32.0/19|VE|lacnic|2009-11-18|CANTV Servicios, Venezuela, VE
188.143.113.121|20845|188.143.0.0/17|HU|ripencc|2011-01-07|DIGICABLE, HU
188.155.131.134|6730|188.154.0.0/15|CH|ripencc|2009-05-08|SUNRISE, CH
188.74.20.5|20810|188.74.16.0/20|DE|ripencc|2011-01-06|NETCOM-KASSEL Netcom Kassel, DE
193.84.116.22|2852|193.84.116.0/23|CZ|ripencc|1993-09-01|CESNET2, CZ
198.84.175.4|5645|198.84.128.0/17|CA|arin|2012-07-23|TEKSAVVY, CA
2.59.236.56|24904|2.59.236.0/22|FR|ripencc|2019-03-28|KWAOO K-NET SARL, FR
200.58.109.75|27823|200.58.109.0/24|AR|lacnic|2008-05-21|Dattatec.com, AR
204.107.27.43|54303|204.107.27.0/24|US|arin|2011-12-19|FILMO, US
206.174.115.96|8047|206.174.0.0/17|US|arin|2004-06-01|GCI, US
207.180.234.83|51167|207.180.234.0/23|DE|ripencc|1996-08-21|CONTABO, DE
213.239.207.170|24940|213.239.192.0/18|DE|ripencc|2003-05-28|HETZNER-AS, DE
217.19.216.210|1547|217.19.216.0/24|MD|ripencc|2003-01-24|IDK-NETWORK, MD
23.138.176.127|33661|23.138.176.0/24|US|arin|2019-07-15|CMCS, US
24.212.229.89|5645|24.212.128.0/17|CA|arin|2011-12-20|TEKSAVVY, CA
24.63.142.234|7922|24.60.0.0/14|US|arin|2001-08-15|COMCAST-7922, US
3.1.201.76|16509|3.0.0.0/15|US|arin|2017-12-20|AMAZON-02, US
3.126.184.249|16509|3.124.0.0/14|US|arin|2017-12-20|AMAZON-02, US
3.8.165.235|16509|3.8.0.0/14|US|arin|2017-12-20|AMAZON-02, US
34.134.33.12|15169|34.134.0.0/16|US|arin|2021-01-08|GOOGLE, US
35.180.33.119|16509|35.180.0.0/16|US|arin|2016-08-09|AMAZON-02, US
35.210.195.247|15169|35.210.0.0/16|US|arin|2017-09-29|GOOGLE, US
37.143.116.43|48926|37.143.112.0/21|CZ|ripencc|2012-03-02|PE3NY-AS, CZ
37.49.81.219|3209|37.49.64.0/18|DE|ripencc|2012-01-25|VODANET International IP-Backbone of Vodafone, DE
37.59.50.14|16276|37.59.0.0/16|FR|ripencc|2012-01-16|OVH, FR
45.46.177.180|11351|45.46.0.0/15|US|arin|2015-02-02|TWC-11351-NORTHEAST, US
45.94.58.23|51167|45.94.58.0/24|DE|ripencc|2019-07-05|CONTABO, DE
46.32.50.98|39642|46.32.32.0/19|DK|ripencc|2010-08-12|DK-ESS-AS, DK
47.144.229.64|5650|47.144.0.0/13|US|arin|2015-08-28|FRONTIER-FRTR, US
47.198.204.108|5650|47.196.0.0/14|US|arin|2015-08-28|FRONTIER-FRTR, US
47.225.11.69|20115|47.225.0.0/17|US|arin|2017-11-27|CHARTER-20115, US
47.252.80.85|45102|47.252.64.0/18|US|arin|2016-04-15|CNNIC-ALIBABA-US-NET-AP Alibaba US Technology Co., Ltd., CN
47.252.85.246|45102|47.252.64.0/18|US|arin|2016-04-15|CNNIC-ALIBABA-US-NET-AP Alibaba US Technology Co., Ltd., CN
47.93.230.171|37963|47.92.0.0/15|CN|apnic|1989-01-06|CNNIC-ALIBABA-CN-NET-AP Hangzhou Alibaba Advertising Co.,Ltd., CN
5.79.123.3|60781|5.79.64.0/18|NL|ripencc|2012-06-14|LEASEWEB-NL-AMS-01 Netherlands, NL
5.81.226.135|2856|5.81.0.0/16|GB|ripencc|2012-06-13|BT-UK-AS BTnet UK Regional network, GB
50.2.13.164|62904|50.2.12.0/23|US|arin|2010-06-25|EONIX-COMMUNICATIONS-ASBLOCK-62904, US
50.47.80.104|20055|50.46.0.0/15|US|arin|2010-09-24|AS-WHOLESAIL, US
51.154.131.18|15796|51.154.0.0/16|CH|ripencc|1993-09-01|SALT-, CH
51.154.62.103|15796|51.154.0.0/16|CH|ripencc|1993-09-01|SALT-, CH
51.161.36.145|16276|51.161.0.0/17|CA|arin|2019-09-03|OVH, FR
52.194.241.193|16509|52.194.0.0/15|US|arin|2015-09-02|AMAZON-02, US
52.42.152.76|16509|52.40.0.0/14|US|arin|1991-12-19|AMAZON-02, US
52.54.198.224|14618|52.54.0.0/15|US|arin|1991-12-19|AMAZON-AES, US
54.215.194.229|16509|54.215.192.0/18|US|arin|2014-10-23|AMAZON-02, US
54.38.204.252|16276|54.38.0.0/16|FR|ripencc|1992-03-17|OVH, FR
54.93.244.144|16509|54.93.128.0/17|US|arin|2014-06-20|AMAZON-02, US
62.171.155.146|51167|62.171.154.0/23|DE|ripencc|2000-08-18|CONTABO, DE
62.210.222.73|12876|62.210.0.0/16|FR|ripencc|2000-10-26|Online SAS, FR
65.108.4.159|24940|65.108.0.0/16|DE|ripencc|2001-02-09|HETZNER-AS, DE
65.175.243.159|11776|65.175.242.0/23|US|arin|2004-03-01|ATLANTICBB-JOHNSTOWN, US
66.208.64.128|10352|66.208.64.0/20|US|arin|2006-04-17|WCTC, US
66.58.243.215|8047|66.58.128.0/17|US|arin|2002-01-17|GCI, US
68.46.138.38|7922|68.32.0.0/11|US|arin|2001-11-29|COMCAST-7922, US
69.165.153.217|5645|69.165.128.0/18|CA|arin|2009-04-02|TEKSAVVY, CA
70.175.50.137|22773|70.175.32.0/19|US|arin|2004-07-21|ASN-CXA-ALL-CCI-22773-RDC, US
72.178.97.136|11427|72.176.0.0/13|US|arin|2005-11-21|TWC-11427-TEXAS, US
76.10.221.49|11013|76.10.208.0/20|US|arin|2007-03-02|BLUE-AS, US
77.10.254.34|6805|77.0.0.0/12|DE|ripencc|2006-11-21|TDDE-ASN1, DE
77.105.87.97|42621|77.105.64.0/18|FI|ripencc|2006-12-05|LPOK-AS, FI
77.242.108.100|15493|77.242.96.0/20|RU|ripencc|2007-02-28|RUSCOMP-AS Russian company LLC. Internet Service Provider, Tyumen, RU
78.152.242.25|15502|78.152.240.0/21|IE|ripencc|2007-06-22|VODAFONE-IRELAND-ASN, IE
81.202.3.174|6739|81.202.0.0/15|ES|ripencc|2002-11-12|ONO-AS Cableuropa - ONO, ES
82.200.205.30|9198|82.200.204.0/22|KZ|ripencc|2003-09-18|KAZTELECOM-AS, KZ
84.38.133.109|203557|84.38.133.0/24|BZ|ripencc|2006-05-26|DATACLUB-NL, BZ
84.72.108.94|6830|84.72.0.0/15|CH|ripencc|2004-04-02|LIBERTYGLOBAL Liberty Global formerly UPC Broadband Holding, aka AORTA, NL
84.73.17.41|6830|84.72.0.0/15|CH|ripencc|2004-04-02|LIBERTYGLOBAL Liberty Global formerly UPC Broadband Holding, aka AORTA, NL
85.214.112.222|6724|85.214.0.0/15|DE|ripencc|2005-02-24|STRATO STRATO AG, DE
85.95.232.77|49467|85.95.232.0/24|TR|ripencc|2010-01-06|EUROTA-ASN EUROTA INTERNET SERVICES LTD, TR
88.112.17.120|719|88.112.0.0/14|FI|ripencc|2005-08-24|ELISA-AS Helsinki, Finland, FI
88.117.53.73|8447|88.116.0.0/15|AT|ripencc|2005-09-16|A1TELEKOM-AT A1 Telekom Austria AG, AT
88.99.209.94|24940|88.99.0.0/16|DE|ripencc|2005-08-03|HETZNER-AS, DE
89.164.31.43|13046|89.164.31.0/24|HR|ripencc|2006-02-27|ASN-ISKON HEP, HR
89.39.106.133|49981|89.39.104.0/22|NL|ripencc|2005-11-29|WORLDSTREAM, NL
91.178.17.120|5432|91.176.0.0/14|BE|ripencc|2006-09-04|PROXIMUS-ISP-AS, BE
91.185.198.234|41828|91.185.192.0/19|SI|ripencc|2006-10-31|TELEMACH-HOSTING, SI
91.210.183.14|48304|91.210.180.0/22|SK|ripencc|2008-11-10|DIGMIA-AS1JBDI-RIPE, SK
93.95.88.13|35434|93.95.88.0/21|PL|ripencc|2009-02-13|PIRXNET-AS, PL
94.154.159.99|62240|94.154.159.0/24|GB|ripencc|2018-11-22|CLOUVIDER Clouvider - Global ASN, GB
95.211.152.100|60781|95.211.0.0/16|NL|ripencc|2009-02-05|LEASEWEB-NL-AMS-01 Netherlands, NL
97.116.172.172|209|97.116.128.0/18|US|arin|2007-12-19|CENTURYLINK-US-LEGACY-QWEST, US
98.143.78.109|7057|98.143.64.0/20|CA|arin|2009-04-30|MANAGEDNETWORK, CA
