# https://chainz.cryptoid.info/ and whois results
# Blocknet
IP Address|Subver|Version|ASN|BGP Prefix|CC|Registry|Allocated|AS Name
102.132.245.76|/Blocknet:4.3.3/|70713||||||
103.216.196.18|/Blocknet:3.13.1/|70712||||||
104.167.2.136|/Blocknet:4.2.0/|70713||||||
104.181.83.208|/Blocknet:3.13.1/|70712||||||
108.6.173.121|/Blocknet:4.3.3/|70713||||||
108.62.49.149|/Blocknet:4.3.3/|70713||||||
109.201.133.30|/Blocknet:4.3.1/|70713||||||
109.252.85.25|/Blocknet:4.3.3/|70713||||||
114.198.43.192|/Blocknet:4.3.3/|70713||||||
120.147.73.206|/Blocknet:4.3.2/|70713||||||
121.99.129.139|/Blocknet:4.3.3/|70713||||||
122.104.135.139|/Blocknet:4.3.3/|70713||||||
135.181.139.29|/Blocknet:4.3.1/|70713||||||
136.50.235.102|/Blocknet:4.3.3/|70713||||||
136.55.81.17|/Blocknet:4.3.1/|70713||||||
142.160.229.209|/Blocknet:4.3.3/|70713||||||
149.202.77.77|/Blocknet:4.3.3/|70713||||||
151.225.178.174|/Blocknet:4.3.3/|70713||||||
151.237.185.110|/Blocknet:4.3.3/|70713||||||
154.6.20.77|/Blocknet:4.3.3/|70713||||||
154.6.21.103|/Blocknet:4.3.3/|70713||||||
157.100.170.36|/Blocknet:4.3.1/|70713||||||
158.62.160.85|/Blocknet:4.3.3/|70713||||||
159.196.232.131|/Blocknet:4.3.3/|70713||||||
161.97.165.23|/Blocknet:4.3.3/|70713||||||
171.97.142.167|/Blocknet:4.3.3/|70713||||||
173.249.39.140|/Blocknet:4.3.1/|70713||||||
178.21.49.222|/Blocknet:4.3.3/|70713||||||
180.190.24.241|/Blocknet:4.3.1/|70713||||||
184.187.182.51|/Blocknet:4.3.2/|70713||||||
185.107.70.56|/Blocknet:4.3.3/|70713||||||
185.159.157.10|/Blocknet:4.3.3/|70713||||||
185.195.233.144|/Blocknet:4.2.0/|70713||||||
185.213.154.172|/Blocknet:4.3.1/|70713||||||
185.217.127.108|/Blocknet:4.3.1/|70713||||||
185.220.100.241|/Blocknet:4.3.3/|70713||||||
185.5.52.115|/Blocknet:4.3.1/|70713||||||
185.83.214.69|/Blocknet:4.3.3/|70713||||||
186.136.250.91|/Blocknet:4.3.3/|70713||||||
188.169.22.31|/Blocknet:4.3.1/|70713||||||
188.195.133.149|/Blocknet:4.3.2/|70713||||||
188.25.120.249|/Blocknet:4.3.3/|70713||||||
190.96.1.19|/Blocknet:4.3.1/|70713||||||
191.126.9.242|/Blocknet:4.3.3/|70713||||||
192.227.194.159|/Blocknet:4.3.3/|70713||||||
193.116.77.183|/Blocknet:4.3.3/|70713||||||
193.119.163.121|/Blocknet:4.3.3/|70713||||||
193.119.165.228|/Blocknet:4.3.3/|70713||||||
194.110.84.82|/Blocknet:4.3.3/|70713|141039|194.110.84.0/24|DE|ripencc|2018-09-25|TEFINCOMHOST-AS-AP Packethub s.a., PA
194.152.21.208|/Blocknet:4.3.3/|70713|3212|194.152.0.0/19|SI|ripencc|1996-05-17|TELEMACH Broadband Access & Carrier Services, SI
197.245.82.149|/Blocknet:4.3.2/|70713||||||
199.115.99.44|/Blocknet:4.3.3/|70713|46844|199.115.99.0/24|US|arin|2012-03-02|ST-BGP, US
199.58.187.9|/Blocknet:4.3.3/|70713|46562|199.58.187.0/24|US|arin|2010-11-18|PERFORMIVE, US
202.146.234.2|/Blocknet:4.3.1/|70713||||||
203.123.108.125|/Blocknet:4.3.3/|70713|38195|203.123.96.0/19|AU|apnic|2003-05-30|SUPERLOOP-AS-AP Superloop, AU
206.214.224.51|/Blocknet:4.3.2/|70713||||||
207.180.250.228|/Blocknet:4.3.1/|70713||||||
207.244.251.62|/Blocknet:4.3.3/|70713|40021|207.244.240.0/20|US|arin|2021-05-07|CONTABO, US
212.112.152.16|/Blocknet:4.3.3/|70713|39642|212.112.128.0/19|DK|ripencc|1998-11-20|DK-ESS-AS, DK
213.136.91.45|/Blocknet:4.3.3/|70713|51167|213.136.90.0/23|DE|ripencc|2000-02-28|CONTABO, DE
213.216.211.11|/Blocknet:4.3.3/|70713||||||
213.239.209.41|/Blocknet:4.3.1/|70713||||||
213.80.102.61|/Blocknet:4.3.3/|70713||||||
213.93.174.101|/Blocknet:4.3.3/|70713|33915|213.93.128.0/17|NL|ripencc|2000-05-09|TNF-AS, NL
217.128.22.94|/Blocknet:4.3.1/|70713||||||
219.109.197.149|/Blocknet:4.3.2/|70713||||||
24.17.168.167|/Blocknet:4.3.3/|70713|7922|24.16.0.0/13|US|arin|2003-10-06|COMCAST-7922, US
24.28.71.48|/Blocknet:4.3.1/|70713||||||
24.79.21.41|/Blocknet:4.3.1/|70713||||||
24.84.245.137|/Blocknet:4.3.2/|70713||||||
45.131.194.146|/Blocknet:4.3.3/|70713||||||
45.239.222.39|/Blocknet:4.3.3/|70713||||||
45.27.73.200|/Blocknet:4.3.2/|70713||||||
45.77.196.72|/Blocknet:4.3.2/|70713||||||
46.101.235.143|/Blocknet:3.14.0/|70712||||||
46.140.50.90|/Blocknet:4.3.3/|70713||||||
46.166.139.111|/Blocknet:4.3.3/|70713||||||
46.39.20.157|/Blocknet:4.3.3/|70713||||||
46.4.121.221|/Blocknet:4.3.2/|70713||||||
46.59.40.91|/Blocknet:4.3.2/|70713||||||
47.229.54.135|/Blocknet:4.3.2/|70713||||||
49.179.65.32|/Blocknet:4.3.3/|70713||||||
49.228.19.155|/Blocknet:4.2.0/|70713||||||
5.12.162.23|/Blocknet:4.3.1/|70713||||||
5.12.7.238|/Blocknet:4.3.1/|70713||||||
5.148.46.115|/Blocknet:4.3.3/|70713||||||
5.175.3.216|/Blocknet:4.3.3/|70713||||||
50.71.188.185|/Blocknet:4.3.0/|70713||||||
51.222.27.28|/Blocknet:4.3.3/|70713||||||
54.37.197.64|/Blocknet:4.3.3/|70713||||||
58.11.88.138|/Blocknet:4.3.3/|70713||||||
62.45.83.215|/Blocknet:4.3.3/|70713||||||
64.227.106.56|/Blocknet:4.3.3/|70713||||||
68.84.152.123|/Blocknet:4.3.3/|70713||||||
69.136.149.239|/Blocknet:4.3.3/|70713||||||
69.30.211.114|/Blocknet:4.1.0/|70713||||||
71.117.153.168|/Blocknet:4.2.0/|70713||||||
71.184.153.195|/Blocknet:4.2.0/|70713||||||
73.2.56.111|/Blocknet:4.3.1/|70713||||||
74.59.133.100|/Blocknet:4.3.0/|70713||||||
74.96.192.6|/Blocknet:4.3.1/|70713||||||
75.46.245.191|/Blocknet:4.3.3/|70713||||||
76.125.157.100|/Blocknet:4.3.3/|70713||||||
76.175.208.161|/Blocknet:4.3.3/|70713||||||
77.168.20.209|/Blocknet:4.3.3/|70713||||||
77.182.237.63|/Blocknet:4.3.2/|70713||||||
77.21.254.156|/Blocknet:4.3.2/|70713||||||
77.249.221.28|/Blocknet:4.3.2/|70713||||||
78.61.192.74|/Blocknet:4.3.3/|70713||||||
79.134.103.98|/Blocknet:4.3.3/|70713||||||
79.143.177.169|/Blocknet:4.3.1/|70713||||||
79.208.197.74|/Blocknet:4.3.3/|70713|3320|79.192.0.0/10|DE|ripencc|2007-06-06|DTAG Internet service provider operations, DE
8.40.26.72|/Blocknet:4.3.3/|70713|13335|8.40.26.0/24|US|arin|1992-12-01|CLOUDFLARENET, US
80.216.176.215|/Blocknet:4.3.1/|70713||||||
81.196.253.7|/Blocknet:4.3.2/|70713||||||
81.89.127.144|/Blocknet:4.3.3/|70713|12389|81.89.127.0/24|RU|ripencc|2008-02-27|ROSTELECOM-AS, RU
82.165.146.7|/Blocknet:4.3.3/|70713|8560|82.165.0.0/16|DE|ripencc|2003-08-06|IONOS-AS This is the joint network for IONOS, Fasthosts, Arsys, 1&1 Mail and Media and 1&1 Telecom. Formerly known as 1&1 Internet SE., DE
82.208.177.249|/Blocknet:4.3.2/|70713||||||
82.22.56.90|/Blocknet:4.3.2/|70713||||||
82.79.190.51|/Blocknet:4.3.3/|70713|8708|82.76.0.0/14|RO|ripencc|2003-07-14|RCS-RDS 73-75 Dr. Staicovici, RO
84.17.46.15|/Blocknet:4.3.3/|70713||||||
84.249.123.116|/Blocknet:4.3.3/|70713||||||
84.35.85.222|/Blocknet:4.3.3/|70713||||||
84.56.109.32|/Blocknet:4.3.1/|70713||||||
85.76.38.85|/Blocknet:4.3.3/|70713||||||
86.121.55.51|/Blocknet:4.3.1/|70713||||||
86.124.67.169|/Blocknet:4.3.2/|70713||||||
86.124.82.98|/Blocknet:4.3.2/|70713||||||
86.13.250.80|/Blocknet:4.3.3/|70713||||||
86.148.13.215|/Blocknet:4.3.2/|70713||||||
86.24.190.38|/Blocknet:4.3.1/|70713||||||
86.56.95.235|/Blocknet:4.3.1/|70713||||||
88.71.70.138|/Blocknet:4.3.2/|70713||||||
89.151.193.116|/Blocknet:4.3.1/|70713||||||
89.21.228.114|/Blocknet:4.2.0/|70713||||||
89.23.224.100|/Blocknet:4.3.2/|70713||||||
89.64.33.249|/Blocknet:4.3.2/|70713||||||
89.98.172.122|/Blocknet:4.3.3/|70713||||||
91.100.31.98|/Blocknet:4.3.3/|70713||||||
91.245.255.196|/Blocknet:3.13.1/|70712||||||
92.114.38.39|/Blocknet:4.3.3/|70713||||||
92.249.191.130|/Blocknet:4.3.2/|70713||||||
92.89.143.222|/Blocknet:4.3.3/|70713||||||
93.21.219.238|/Blocknet:4.3.2/|70713||||||
93.71.225.12|/Blocknet:4.3.3/|70713||||||
95.217.122.79|/Blocknet:4.3.3/|70713||||||
95.217.17.174|/Blocknet:4.3.1/|70713||||||
95.217.73.169|/Blocknet:4.2.0/|70713||||||
96.39.246.253|/Blocknet:4.3.1/|70713||||||
97.81.124.255|/Blocknet:4.3.3/|70713||||||
99.68.157.29|/Blocknet:4.3.2/|70713||||||
