# https://chainz.cryptoid.info/ and whois results
# Dash
IP Address|Subver|Version|ASN|BGP Prefix|CC|Registry|Allocated|AS Name
104.195.16.74|/Dash Core:0.17.0.3/|70219|22552|104.195.0.0/18|US|arin|2014-09-08|ESITED, US
105.112.180.96|/WalletKit:0.1.0/|70214|36873|105.112.180.0/24|NG|afrinic|2013-09-20|VNL1-AS, NG
110.178.219.71|/Dash Core:0.16.1/|70218|4134|110.176.0.0/13|CN|apnic|2009-04-27|CHINANET-BACKBONE No.31,Jin-rong Street, CN
128.199.158.4|/Dash Core:0.17.0.3/|70219|14061|128.199.128.0/18|GB|ripencc|1999-04-12|DIGITALOCEAN-ASN, US
128.199.17.200|/Dash Core:0.17.0.3/|70219|14061|128.199.16.0/20|GB|ripencc|1999-04-12|DIGITALOCEAN-ASN, US
129.13.189.211|/dsn.tm.kit.edu/dash:0.14.0.2/|70215|34878|129.13.0.0/16|DE|ripencc|1987-06-29|KIT Karlsruhe Institute of Technology, DE
13.250.127.216|/Dash Core:0.16.1.1/|70218|16509|13.250.0.0/15|US|arin|2018-07-11|AMAZON-02, US
138.197.134.167|/Dash Core:0.17.0.3/|70219|14061|138.197.128.0/20|US|arin|2016-01-26|DIGITALOCEAN-ASN, US
139.59.231.57|/Dash Core:0.17.0.3/|70219|14061|139.59.224.0/20|SG|apnic|1990-06-27|DIGITALOCEAN-ASN, US
14.192.65.247|/Dash Core:0.16.1.1/|70218|45250|14.192.65.0/24|MY|apnic|2010-09-15|VOCOM-AP-AS Vocom International Telecommunications AP Area, TW
147.229.206.69|/BdaNodeMapper0.1/|70219|197451|147.229.192.0/19|CZ|ripencc|1993-01-11|VUTBR-AS, CZ
152.206.174.28|/DashJ:0.15.2/Dash Wallet:6.4.2/|70213|27725|152.206.172.0/22|CU|lacnic|2014-06-04|Empresa de Telecomunicaciones de Cuba, S.A., CU
157.245.45.156|/Dash Core:0.17.0.3/|70219|14061|157.245.32.0/20|US|arin|2019-05-09|DIGITALOCEAN-ASN, US
158.101.119.52|/Dash Core:0.17.0.3/|70219|31898|158.101.96.0/19|US|arin|2016-10-14|ORACLE-BMC-31898, US
170.75.170.6|/Dash Core:0.16.1.1/|70218|174|170.75.160.0/20|CA|arin|2014-06-11|COGENT-174, US
172.81.179.234|/Dash Core:0.16.1.1/|70218|174|172.81.176.0/21|CA|arin|2015-05-14|COGENT-174, US
176.123.57.215|/Dash Core:0.17.0.3/|70219|59522|176.123.57.0/24|HR|ripencc|2012-07-31|M3T, HR
178.62.251.10|/bitnodes.earn.com:0.1/|70214|14061|178.62.192.0/18|US|ripencc|2010-02-26|DIGITALOCEAN-ASN, US
178.63.235.192|/Dash Core:0.17.0.3/|70219|24940|178.63.0.0/16|DE|ripencc|2010-03-02|HETZNER-AS, DE
178.79.107.242|/BitcoinKit:0.1.0/|70214|3212|178.79.64.0/18|SI|ripencc|2010-05-07|TELEMACH Broadband Access & Carrier Services, SI
178.79.107.242|/BitcoinKit:0.1.0/|70213|3212|178.79.64.0/18|SI|ripencc|2010-05-07|TELEMACH Broadband Access & Carrier Services, SI
18.139.66.125|/Dash Core:0.16.1.1/|70218|16509|18.138.0.0/15|US|arin|2019-10-07|AMAZON-02, US
185.107.58.204|/Dash Core:0.17.0.3/|70219|43350|185.107.56.0/22|NL|ripencc|2015-07-03|NFORCE, NL
185.129.62.62|/BitcoinKit:0.1.0/|70214|57860|185.129.62.0/23|DK|ripencc|2015-11-30|ZENCURITY-NET, DK
185.129.62.62|/BitcoinKit:0.1.0/|70213|57860|185.129.62.0/23|DK|ripencc|2015-11-30|ZENCURITY-NET, DK
185.177.5.7|/Dash Core:0.16.1.1/|70218|206759|185.177.4.0/22|SK|ripencc|2016-11-09|SYTRA, SK
185.186.244.139|/Dash Core:0.16.1.1/|70218|35415|185.186.244.0/24|CY|ripencc|2017-01-23|WEBZILLA, NL
185.189.23.76|/WalletKit:0.1.0/|70214|206296|185.189.22.0/23|FR|ripencc|2017-02-08|CORIO-MVNO-CORE, FR
185.220.100.252|/BitcoinKit:0.1.0/|70214|205100|185.220.100.0/24|DE|ripencc|2017-09-12|F3NETZE, DE
185.220.100.252|/BitcoinKit:0.1.0/|70213|205100|185.220.100.0/24|DE|ripencc|2017-09-12|F3NETZE, DE
185.220.101.55|/BitcoinKit:0.1.0/|70214|208294|185.220.101.0/24|DE|ripencc|2017-09-12|RELAYON, US
185.220.101.55|/BitcoinKit:0.1.0/|70213|208294|185.220.101.0/24|DE|ripencc|2017-09-12|RELAYON, US
188.166.176.14|/Dash Core:0.17.0.3/|70219|14061|188.166.176.0/20|US|ripencc|2009-06-05|DIGITALOCEAN-ASN, US
188.166.88.39|/Dash Core:0.17.0.3/|70219|14061|188.166.64.0/18|US|ripencc|2009-06-05|DIGITALOCEAN-ASN, US
188.40.184.64|/Dash Core:0.17.0.3/|70219|24940|188.40.0.0/16|DE|ripencc|2009-04-23|HETZNER-AS, DE
190.217.12.68|/Dash Core:0.16.1.1/|70218|3549|190.217.12.0/24|AR|lacnic|2011-04-08|LVLT-3549, US
195.12.50.195|/BitcoinKit:0.1.0/|70214|9009|195.12.50.0/24|GB|ripencc|2006-02-01|M247, GB
195.12.50.195|/BitcoinKit:0.1.0/|70213|9009|195.12.50.0/24|GB|ripencc|2006-02-01|M247, GB
195.154.105.157|/BitcoinKit:0.1.0/|70214|12876|195.154.0.0/16|FR|ripencc|1996-08-27|Online SAS, FR
195.154.105.157|/BitcoinKit:0.1.0/|70213|12876|195.154.0.0/16|FR|ripencc|1996-08-27|Online SAS, FR
195.201.108.176|/Dash Core:0.16.1.1/|70218|24940|195.201.0.0/16|DE|ripencc|1997-09-22|HETZNER-AS, DE
207.246.116.23|/Dash Core:0.14.0.1/|70215|20473|207.246.112.0/21|US|arin|2017-10-13|AS-CHOOPA, US
216.108.236.43|/Dash Core:0.16.1.1/|70218|26277|216.108.236.0/24|US|arin|2008-04-11|PREMIANET, US
216.189.147.45|/Dash Core:0.17.0.3/|70219|7489|216.189.147.0/24|US|arin|2014-08-29|HOSTUS-GLOBAL-AS HostUS, HK
35.164.184.184|/Dash Core:0.17.0.2/|70219|16509|35.160.0.0/13|US|arin|2016-08-09|AMAZON-02, US
35.193.74.89|/Dash Core:0.15.0/|70216|15169|35.192.0.0/14|US|arin|2017-03-21|GOOGLE, US
35.208.245.6|/Dash Core:0.17.0.3/|70219|15169|35.208.0.0/15|US|arin|2017-09-29|GOOGLE, US
37.187.156.84|/Dash Core:0.17.0.3/|70219|16276|37.187.0.0/16|FR|ripencc|2012-03-20|OVH, FR
43.229.77.46|/Dash Core:0.17.0.3/|70219|56309|43.229.76.0/22|TH|apnic|2015-01-16|SIAMDATA-TH 408 Fl4 CATTOWER, TH
45.77.154.164|/Dash Core:0.16.1.1/|70218|20473|45.77.144.0/20|US|arin|2015-04-24|AS-CHOOPA, US
5.133.65.82|/Dash Core:0.16.1.1/|70218|15440|5.133.65.0/24|LT|ripencc|2018-11-09|BALTNETA Customers AS, LT
50.220.121.211|/Dash Core:0.17.0.2/|70219|7922|50.128.0.0/9|US|arin|2010-10-21|COMCAST-7922, US
52.20.108.246|/Dash Core:0.17.0.2/|70219|14618|52.20.0.0/14|US|arin|1991-12-19|AMAZON-AES, US
52.7.182.86|/Dash Core:0.17.0.2/|70219|14618|52.4.0.0/14|US|arin|1991-12-19|AMAZON-AES, US
64.251.65.206|/Dash Core:0.17.0.3/|70219|6327|64.251.64.0/21|CA|arin|2001-02-05|SHAW, CA
73.162.75.176|/Dash Core:0.17.0.3/|70219|7922|73.0.0.0/8|US|arin|2005-04-19|COMCAST-7922, US
77.162.69.238|/WalletKit:0.1.0/|70214|1136|77.160.0.0/13|NL|ripencc|2006-11-02|KPN KPN National, NL
78.46.46.22|/Dash Core:0.16.1.1/|70218|24940|78.46.0.0/15|DE|ripencc|2007-04-16|HETZNER-AS, DE
82.211.21.166|/Dash Core:0.17.0.3/|70219|31400|82.211.0.0/18|DE|ripencc|2003-10-10|ACCELERATED-IT, DE
82.211.21.246|/Dash Core:0.17.0.3/|70219|31400|82.211.0.0/18|DE|ripencc|2003-10-10|ACCELERATED-IT, DE
82.82.150.178|/Dash Core:0.16.1.1/|70218|3209|82.82.0.0/15|DE|ripencc|2003-05-26|VODANET International IP-Backbone of Vodafone, DE
88.99.36.244|/Dash Core:0.17.0.3/|70219|24940|88.99.0.0/16|DE|ripencc|2005-08-03|HETZNER-AS, DE
91.121.108.172|/Dash Core:0.15.0/|70216|16276|91.121.0.0/16|FR|ripencc|2006-09-20|OVH, FR
91.250.240.61|/WalletKit:0.1.0/|70214|203020|91.250.240.0/24|IN|ripencc|2012-09-14|HOSTROYALE, IN
92.5.228.49|/dashwallet:5.7.0/|70219|13285|92.4.0.0/15|GB|ripencc|2007-06-28|OPALTELECOM-AS TalkTalk Communications Limited, GB
95.179.152.33|/Dash Core:0.17.0.3/|70219|20473|95.179.144.0/20|US|ripencc|2009-01-22|AS-CHOOPA, US
95.216.73.176|/Dash Core:0.16.1.1/|70218|24940|95.216.0.0/16|DE|ripencc|2009-02-24|HETZNER-AS, DE
95.217.48.99|/Dash Core:0.17.0.3/|70219|24940|95.217.0.0/16|DE|ripencc|2009-02-24|HETZNER-AS, DE
