# https://chainz.cryptoid.info/ and whois results
# Dimecoin
IP Address|Subver|Version|ASN|BGP Prefix|CC|Registry|Allocated|AS Name
104.248.244.51|/dimecoin:1.10.0.1/|70004||||||
104.248.30.52|/dimecoin:1.10.0.1/|70004||||||
108.61.165.140|/dimecoin:1.10.0.1/|70004||||||
109.158.81.153|/dimecoin:1.10.0.1/|70004||||||
109.241.110.96|/dimecoin:1.10.0.1/|70004||||||
135.181.32.44|/dimecoin:1.10.0.1/|70004||||||
136.144.35.253|/dimecoin:1.10.0.1/|70004||||||
137.220.57.12|/dimecoin:1.10.0.1/|70004||||||
138.36.48.7|/dimecoin:1.10.0.1/|70004||||||
14.11.4.224|/dimecoin:1.10.0.1/|70004||||||
14.161.73.142|/dimecoin:1.10.0.1/|70004||||||
140.82.56.25|/dimecoin:1.10.0.1/|70004||||||
157.90.181.171|/dimecoin:1.10.0.1/|70004||||||
161.97.83.204|/dimecoin:1.10.0.1/|70004||||||
166.173.62.164|/dimecoin:1.10.0.1/|70004|20057|166.173.60.0/22|US|arin|1993-07-09|ATT-MOBILITY-LLC-AS20057, US
167.99.6.185|/dimecoin:1.10.0.1/|70004|14061|167.99.0.0/20|US|arin|2017-11-10|DIGITALOCEAN-ASN, US
174.204.196.233|/dimecoin:1.10.0.1/|70004|6167|174.204.192.0/18|US|arin|2008-12-16|CELLCO-PART, US
176.160.78.72|/dimecoin:1.10.0/|70004|5410|176.128.0.0/10|FR|ripencc|2011-07-06|BOUYGTEL-ISP, FR
178.63.11.230|/dimecoin:1.10.0.1/|70004|24940|178.63.0.0/16|DE|ripencc|2010-03-02|HETZNER-AS, DE
185.158.182.57|/dimecoin:1.10.0.1/|70004|20810|185.158.180.0/22|DE|ripencc|2016-07-07|NETCOM-KASSEL Netcom Kassel, DE
187.26.68.51|/DimecoinJ:0.12.7/Dimecoin Wallet:1.1.1/|70004|22085|187.24.0.0/14|BR|lacnic|2008-10-06|Claro SA, BR
189.78.33.52|/dimecoin:1.10.0.1/|70004|27699|189.78.0.0/16|BR|lacnic|2007-11-09|TELEFONICA BRASIL S.A, BR
193.70.35.154|/dimecoin:1.10.0.1/|70004||||||
194.160.80.214|/dimecoin:1.10.0.1/|70004|2607|194.160.0.0/16|SK|ripencc|1995-05-03|SANET Slovak Academic Network, SK
194.163.173.70|/dimecoin:1.10.0.1/|70004||||||
201.162.233.30|/dimecoin:1.10.0.1/|70004|7438|201.162.233.0/24|MX|lacnic|2014-06-12|Pegaso PCS, S.A. de C.V., MX
201.162.234.148|/dimecoin:1.10.0.1/|70004|7438|201.162.234.0/24|MX|lacnic|2014-06-12|Pegaso PCS, S.A. de C.V., MX
201.170.244.24|/dimecoin:1.10.0.1/|70004|8151|201.170.244.0/24|MX|lacnic|2009-03-24|Uninet S.A. de C.V., MX
213.161.4.160|/dimecoin:1.10.0.1/|70004|3212|213.161.0.0/19|SI|ripencc|1999-12-23|TELEMACH Broadband Access & Carrier Services, SI
217.133.135.113|/dimecoin:1.10.0.1/|70004|8612|217.133.0.0/16|IT|ripencc|2001-01-24|TISCALI-, IT
217.253.117.98|/DimecoinJ:0.12.7/Dimecoin Wallet:1.1.1/|70004|3320|217.224.0.0/11|DE|ripencc|2001-04-04|DTAG Internet service provider operations, DE
24.159.181.207|/dimecoin:1.10.0.1/|70004|20115|24.159.176.0/20|US|arin|2000-09-08|CHARTER-20115, US
31.170.238.55|/DimecoinJ:0.12.7/Dimecoin Wallet:1.1.1/|70004|29049|31.170.238.0/24|AZ|ripencc|2011-03-31|DELTA-TELECOM-AS International Communication Operator, AZ
37.163.51.168|/DimecoinJ:0.12.7/Dimecoin Wallet:1.1.1/|70004|29447|37.160.0.0/14|FR|ripencc|2012-03-08|TIF-AS Iliad Italia S.p.A, FR
37.59.8.99|/dimecoin:1.10.0.1/|70004|16276|37.59.0.0/16|FR|ripencc|2012-01-16|OVH, FR
44.226.133.129|/dimecoin:1.10.0.1/|70004||||||
46.101.235.143|/dimecoin:1.10.0.1/|70004||||||
46.23.35.70|/dimecoin:1.10.0.1/|70004||||||
5.178.14.13|/DimecoinJ:0.12.7/Dimecoin Wallet:1.1.1/|70004|28787|5.178.14.0/24|AZ|ripencc|2012-08-03|BAKINTER-AS Bakinternet ISP, Azerbaijan, AZ
5.188.173.19|/dimecoin:1.10.0.1/|70004||||||
5.196.91.94|/dimecoin:1.10.0.1/|70004|16276|5.196.0.0/16|FR|ripencc|2012-08-23|OVH, FR
51.159.5.111|/dimecoin:1.10.0.1/|70004|12876|51.158.0.0/15|FR|ripencc|1993-09-01|Online SAS, FR
61.6.126.240|/dimecoin:1.10.0.1/|70004|9930|61.6.0.0/17|MY|apnic|2000-08-04|TTNET-MY TIME dotCom Berhad No. 14, Jalan Majistret U126 Hicom Glenmarie Industrial Park 40150 Shah Alam Selangor, Malaysia, MY
62.238.134.235|/dimecoin:1.10.0.1/|70004|15542|62.238.0.0/16|NL|ripencc|2000-11-02|ZEELANDNET DELTA Fiber Nederland, NL
64.21.112.200|/dimecoin:1.10.0.1/|70004|8001|64.21.0.0/17|US|arin|1999-12-22|NET-ACCESS-CORP, US
64.58.165.234|/dimecoin:1.10.0.1/|70004|22773|64.58.160.0/19|US|arin|2000-03-13|ASN-CXA-ALL-CCI-22773-RDC, US
67.185.20.142|/dimecoin:1.10.0.1/|70004|7922|67.160.0.0/11|US|arin|2002-12-16|COMCAST-7922, US
70.91.250.149|/dimecoin:1.10.0.1/|70004||||||
72.198.1.177|/dimecoin:1.10.0.1/|70004|22773|72.198.0.0/17|US|arin|2005-08-03|ASN-CXA-ALL-CCI-22773-RDC, US
78.36.76.47|/dimecoin:1.10.0.1/|70004|12389|78.36.0.0/15|RU|ripencc|2007-03-16|ROSTELECOM-AS, RU
79.12.180.123|/dimecoin:1.10.0.1/|70004|3269|79.12.0.0/15|IT|ripencc|2007-02-21|ASN-IBSNAZ, IT
79.137.57.54|/dimecoin:1.10.0.1/|70004|16276|79.137.0.0/17|FR|ripencc|2007-10-18|OVH, FR
84.234.52.190|/dimecoin:1.10.0.1/|70004||||||
85.19.25.38|/dimecoin:1.10.0.1/|70004||||||
86.143.40.146|/dimecoin:1.10.0.1/|70004|2856|86.128.0.0/12|GB|ripencc|2005-02-07|BT-UK-AS BTnet UK Regional network, GB
87.214.73.64|/dimecoin:1.10.0.1/|70004|13127|87.214.0.0/16|NL|ripencc|2005-06-02|T-MOBILE AS for the Trans-European T-Mobile IP Transport backbone, NL
90.202.174.21|/dimecoin:1.10.0.1/|70004||||||
91.113.21.99|/dimecoin:1.10.0.1/|70004||||||
92.41.166.68|/dimecoin:1.10.0.1/|70004||||||
93.82.72.210|/dimecoin:1.10.0.1/|70004||||||
94.23.2.215|/dimecoin:1.10.0.1/|70004||||||
99.39.103.213|/dimecoin:1.10.0.1/|70004|7018|99.32.0.0/12|US|arin|2008-02-25|ATT-INTERNET4, US
