# https://chainz.cryptoid.info/ and whois results
# Dimecoin
IP Address|Subver|Version|ASN|BGP Prefix|CC|Registry|Allocated|AS Name
100.12.47.87|/dimecoin:1.10.0.1/|70004||||||
103.122.90.30|/dimecoin:1.10.0.1/|70004||||||
103.89.232.97|/DimecoinJ:0.12.7/Dimecoin Wallet:1.1.1/|70004||||||
103.89.235.142|/DimecoinJ:0.12.7/Dimecoin Wallet:1.1.1/|70004||||||
104.248.244.51|/dimecoin:1.10.0.1/|70004||||||
107.181.178.88|/dimecoin:1.10.0.1/|70004||||||
107.181.178.93|/dimecoin:1.10.0.1/|70004||||||
108.61.165.140|/dimecoin:1.10.0.1/|70004||||||
135.181.32.44|/dimecoin:1.10.0.1/|70004||||||
137.220.57.12|/dimecoin:1.10.0.1/|70004||||||
138.36.49.240|/dimecoin:1.10.0.1/|70004||||||
14.11.4.224|/dimecoin:1.10.0.1/|70004||||||
14.161.73.142|/dimecoin:1.10.0.1/|70004||||||
140.82.56.25|/dimecoin:1.10.0.1/|70004||||||
161.22.34.165|/dimecoin:1.10.0.1/|70004||||||
161.97.83.204|/dimecoin:1.10.0.1/|70004||||||
167.99.6.185|/dimecoin:1.10.0.1/|70004||||||
176.160.78.72|/dimecoin:1.10.0/|70004||||||
177.5.163.217|/dimecoin:1.10.0.1/|70004||||||
178.63.11.230|/dimecoin:1.10.0.1/|70004||||||
185.158.182.57|/dimecoin:1.10.0.1/|70004||||||
193.70.35.154|/dimecoin:1.10.0.1/|70004||||||
193.83.207.179|/dimecoin:1.10.0.1/|70004||||||
194.160.80.214|/dimecoin:1.10.0.1/|70004||||||
194.163.173.70|/dimecoin:1.10.0.1/|70004||||||
195.155.169.246|/dimecoin:1.10.0.1/|70004||||||
201.162.226.220|/dimecoin:1.10.0.1/|70004||||||
201.162.240.180|/dimecoin:1.10.0.1/|70004||||||
201.162.241.220|/dimecoin:1.10.0.1/|70004||||||
201.170.244.24|/dimecoin:1.10.0.1/|70004||||||
213.161.4.160|/dimecoin:1.10.0.1/|70004|3212|213.161.0.0/19|SI|ripencc|1999-12-23|TELEMACH Broadband Access & Carrier Services, SI
217.133.135.113|/dimecoin:1.10.0.1/|70004||||||
24.159.181.207|/dimecoin:1.10.0.1/|70004||||||
31.157.119.230|/dimecoin:1.10.0.1/|70004||||||
37.59.8.99|/dimecoin:1.10.0.1/|70004||||||
44.226.133.129|/dimecoin:1.10.0.1/|70004||||||
46.101.235.143|/dimecoin:1.10.0.1/|70004||||||
46.23.35.70|/dimecoin:1.10.0.1/|70004||||||
49.185.23.169|/dimecoin:1.10.0.1/|70004||||||
5.178.11.26|/DimecoinJ:0.12.7/Dimecoin Wallet:1.1.1/|70004||||||
5.188.173.19|/dimecoin:1.10.0.1/|70004||||||
5.192.173.202|/dimecoin:1.10.0.1/|70004||||||
5.196.91.94|/dimecoin:1.10.0.1/|70004||||||
5.35.62.37|/dimecoin:1.10.0.1/|70004||||||
5.70.218.244|/dimecoin:1.10.0.1/|70004||||||
51.159.5.111|/dimecoin:1.10.0.1/|70004||||||
61.6.126.240|/dimecoin:1.10.0.1/|70004|9930|61.6.0.0/17|MY|apnic|2000-08-04|TTNET-MY TIME dotCom Berhad No. 14, Jalan Majistret U126 Hicom Glenmarie Industrial Park 40150 Shah Alam Selangor, Malaysia, MY
64.21.112.200|/dimecoin:1.10.0.1/|70004|8001|64.21.0.0/17|US|arin|1999-12-22|NET-ACCESS-CORP, US
66.58.195.19|/dimecoin:1.10.0.1/|70004|8047|66.58.128.0/17|US|arin|2002-01-17|GCI, US
67.185.20.142|/dimecoin:1.10.0.1/|70004|7922|67.160.0.0/11|US|arin|2002-12-16|COMCAST-7922, US
70.91.250.149|/dimecoin:1.10.0.1/|70004||||||
72.198.1.177|/dimecoin:1.10.0.1/|70004||||||
73.9.21.153|/dimecoin:1.10.0.1/|70004||||||
76.110.159.99|/DimecoinJ:0.12.7/Dimecoin Wallet:1.1.1/|70004||||||
77.231.241.10|/dimecoin:1.10.0.1/|70004||||||
78.140.211.2|/dimecoin:1.10.0.1/|70004||||||
78.36.76.47|/dimecoin:1.10.0.1/|70004||||||
79.137.57.54|/dimecoin:1.10.0.1/|70004||||||
81.251.164.106|/dimecoin:1.10.0.1/|70004||||||
83.151.14.233|/dimecoin:1.10.0.1/|70004||||||
84.234.52.190|/dimecoin:1.10.0.1/|70004||||||
85.19.25.38|/dimecoin:1.10.0.1/|70004||||||
86.83.226.57|/dimecoin:1.10.0.1/|70004||||||
90.101.9.121|/dimecoin:1.10.0.1/|70004||||||
93.82.72.33|/dimecoin:1.10.0.1/|70004||||||
94.23.2.215|/dimecoin:1.10.0.1/|70004||||||
