# https://chainz.cryptoid.info/ and whois results
# Lanacoin
IP Address|Subver|Version|ASN|BGP Prefix|CC|Registry|Allocated|AS Name
103.137.12.117|/Lana:1.0.0.1/|60001|137409|103.137.12.0/24|AU|apnic|2019-03-19|GSLNETWORKS-AS-AP GSL Networks Pty LTD, AU
109.116.20.105|/Lana:1.0.0.1/|60001||||||
109.182.12.46|/Lana:1.0.0.1/|60001|5603|109.182.0.0/17|SI|ripencc|2009-09-25|SIOL-NET Telekom Slovenije d.d., SI
109.252.66.11|/Lana:1.0.0.1/|60001||||||
146.212.125.31|/Lana:1.0.0.1/|60001||||||
151.237.173.174|/Lana:1.0.0.1/|60001|29072|151.237.172.0/22|RU|ripencc|2012-08-16|RDTC-AS RDTC Autonomous System ISP at Novokuznetsk city, RU
159.65.206.24|/Lana:1.0.0.1/|60001|14061|159.65.192.0/20|US|arin|2017-10-24|DIGITALOCEAN-ASN, US
176.123.218.228|/Lana:1.0.0.1/|60001|59584|176.123.216.0/22|RU|ripencc|2012-07-31|INDIKOM-AS, RU
188.17.58.92|/Lana:1.0.0.1/|60001|12389|188.17.0.0/18|RU|ripencc|2009-02-03|ROSTELECOM-AS, RU
189.29.170.154|/Lana:1.0.0.1/|60001|28573|189.29.128.0/18|BR|lacnic|2007-04-02|CLARO S.A., BR
193.164.140.162|/Lana:1.0.0.1/|60001|41427|193.164.140.0/24|SI|ripencc|2006-08-18|MARC-NET_AS, SI
193.77.158.82|/Lana:1.0.0.1/|60001|5603|193.77.128.0/18|SI|ripencc|1993-09-01|SIOL-NET Telekom Slovenije d.d., SI
2.126.59.226|/Lana:1.0.0.1/|60001|5607|2.120.0.0/13|GB|ripencc|2010-04-14|BSKYB-BROADBAND-AS, GB
206.248.184.43|/Lana:1.0.0.1/|60001|5645|206.248.184.0/22|CA|arin|2005-03-08|TEKSAVVY, CA
217.160.244.15|/Lana:1.0.0.1/|60001|8560|217.160.0.0/16|DE|ripencc|2001-03-07|IONOS-AS This is the joint network for IONOS, Fasthosts, Arsys, 1&1 Mail and Media and 1&1 Telecom. Formerly known as 1&1 Internet SE., DE
24.132.202.61|/Lana:1.0.0.1/|60001|33915|24.132.128.0/17|NL|ripencc|2000-01-17|TNF-AS, NL
31.15.164.16|/Lana:1.0.0.1/|60001|3212|31.15.128.0/17|SI|ripencc|2011-04-20|TELEMACH Broadband Access & Carrier Services, SI
37.24.189.124|/Lana:1.0.0.1/|60001|3209|37.24.128.0/17|DE|ripencc|2011-12-22|VODANET International IP-Backbone of Vodafone, DE
37.35.138.57|/Lana:1.0.0.1/|60001|12479|37.35.136.0/22|ES|ripencc|2012-01-05|UNI2-AS, ES
44.226.133.129|/Lana:1.0.0.1/|60001||||||
45.132.247.73|/Lana:1.0.0.1/|60001||||||
46.101.235.143|/Lana:1.0.0.1/|60001||||||
51.38.57.53|/Lana:1.0.0.1/|60001||||||
62.171.190.193|/Lana:1.0.0.1/|60001|51167|62.171.190.0/23|DE|ripencc|2000-08-18|CONTABO, DE
62.238.178.129|/Lana:1.0.0.1/|60001|15542|62.238.0.0/16|NL|ripencc|2000-11-02|ZEELANDNET DELTA Fiber Nederland, NL
66.55.78.57|/Lana:1.0.0.1/|60001|8100|66.55.78.0/24|US|arin|2009-10-08|ASN-QUADRANET-GLOBAL, US
71.205.83.216|/Lana:1.0.0.1/|60001|7922|71.192.0.0/12|US|arin|2005-07-27|COMCAST-7922, US
72.224.195.138|/Lana:1.0.0.1/|60001|11351|72.224.0.0/16|US|arin|2005-07-21|TWC-11351-NORTHEAST, US
74.136.37.85|/Lana:1.0.0.1/|60001|10796|74.128.0.0/12|US|arin|2006-04-07|TWC-10796-MIDWEST, US
77.38.50.61|/Lana:1.0.0.1/|60001|3212|77.38.0.0/17|SI|ripencc|2007-03-22|TELEMACH Broadband Access & Carrier Services, SI
79.184.232.184|/Lana:1.0.0.1/|60001|5617|79.184.0.0/13|PL|ripencc|2007-06-15|TPNET, PL
81.93.71.42|/Lana:1.0.0.1/|60001|25144|81.93.64.0/19|BA|ripencc|2002-08-07|TELEKOM-SRPSKE-AS Kralja Petra I Karadjordjevica 61a, BA
83.166.112.117|/Lana:1.0.0.1/|60001|51009|83.166.96.0/19|RU|ripencc|2010-05-12|NICOS-MSK Nicos Autonomous System, RU
84.162.170.179|/Lana:1.0.0.1/|60001|3320|84.128.0.0/10|DE|ripencc|2004-03-10|DTAG Internet service provider operations, DE
85.113.216.124|/Lana:1.0.0.1/|60001||||||
86.9.173.126|/Lana:1.0.0.1/|60001|5089|86.9.0.0/16|GB|ripencc|2005-03-29|NTL, GB
87.123.245.148|/Lana:1.0.0.1/|60001|8881|87.123.240.0/21|DE|ripencc|2005-07-27|VERSATEL, DE
87.123.245.97|/Lana:1.0.0.1/|60001|8881|87.123.240.0/21|DE|ripencc|2005-07-27|VERSATEL, DE
88.198.62.49|/Lana:1.0.0.1/|60001||||||
89.142.125.41|/Lana:1.0.0.1/|60001||||||
89.142.64.85|/Lana:1.0.0.1/|60001||||||
89.71.156.196|/Lana:1.0.0.1/|60001||||||
91.206.16.214|/Lana:1.0.0.1/|60001||||||
92.129.152.37|/Lana:1.0.0.1/|60001||||||
93.103.20.240|/Lana:1.0.0.1/|60001||||||
94.198.41.108|/Lana:1.0.0.1/|60001||||||
94.28.173.70|/Lana:1.0.0.1/|60001||||||
95.217.229.50|/Lana:1.0.0.1/|60001||||||
95.217.77.209|/Lana:1.0.0.1/|60001||||||
99.148.47.138|/Lana:1.0.0.1/|60001||||||
