# https://chainz.cryptoid.info/ and whois results
# Lanacoin
IP Address|Subver|Version|ASN|BGP Prefix|CC|Registry|Allocated|AS Name
103.137.12.126|/Lana:1.0.0.1/|60001||||||
108.228.153.213|/Lana:1.0.0.1/|60001||||||
109.116.128.129|/Lana:1.0.0.1/|60001||||||
109.252.52.123|/Lana:1.0.0.1/|60001||||||
159.65.206.24|/Lana:1.0.0.1/|60001||||||
177.192.6.216|/Lana:1.0.0.1/|60001||||||
184.148.113.175|/Lana:1.0.0.1/|60001||||||
189.29.170.154|/Lana:1.0.0.1/|60001||||||
193.164.140.162|/Lana:1.0.0.1/|60001||||||
193.77.158.82|/Lana:1.0.0.1/|60001||||||
212.187.63.69|/Lana:1.0.0.1/|60001||||||
37.24.189.124|/Lana:1.0.0.1/|60001||||||
44.226.133.129|/Lana:1.0.0.1/|60001||||||
45.132.247.73|/Lana:1.0.0.1/|60001||||||
45.67.146.18|/Lana:1.0.0.1/|60001||||||
46.101.235.143|/Lana:1.0.0.1/|60001||||||
46.123.198.65|/Lana:1.0.0.1/|60001||||||
46.123.242.247|/Lana:1.0.0.1/|60001||||||
46.123.243.167|/Lana:1.0.0.1/|60001||||||
46.123.253.184|/Lana:1.0.0.1/|60001||||||
46.123.253.189|/Lana:1.0.0.1/|60001||||||
46.123.254.119|/Lana:1.0.0.1/|60001||||||
5.227.24.215|/Lana:1.0.0.1/|60001||||||
5.227.26.156|/Lana:1.0.0.1/|60001||||||
5.227.26.34|/Lana:1.0.0.1/|60001|8580|5.227.24.0/22|RU|ripencc|2012-09-07|SANDY MTS Nizhniy Novgorod, Russia, RU
5.227.26.72|/Lana:1.0.0.1/|60001|8580|5.227.24.0/22|RU|ripencc|2012-09-07|SANDY MTS Nizhniy Novgorod, Russia, RU
51.38.57.53|/Lana:1.0.0.1/|60001||||||
62.238.178.129|/Lana:1.0.0.1/|60001|15542|62.238.0.0/16|NL|ripencc|2000-11-02|ZEELANDNET DELTA Fiber Nederland, NL
66.55.78.57|/Lana:1.0.0.1/|60001|8100|66.55.78.0/24|US|arin|2009-10-08|ASN-QUADRANET-GLOBAL, US
71.205.83.216|/Lana:1.0.0.1/|60001||||||
74.136.37.85|/Lana:1.0.0.1/|60001|10796|74.128.0.0/12|US|arin|2006-04-07|TWC-10796-MIDWEST, US
77.38.50.61|/Lana:1.0.0.1/|60001|3212|77.38.0.0/17|SI|ripencc|2007-03-22|TELEMACH Broadband Access & Carrier Services, SI
83.31.249.55|/Lana:1.0.0.1/|60001|5617|83.24.0.0/13|PL|ripencc|2003-12-03|TPNET, PL
84.162.169.220|/Lana:1.0.0.1/|60001|3320|84.128.0.0/10|DE|ripencc|2004-03-10|DTAG Internet service provider operations, DE
85.175.97.16|/Lana:1.0.0.1/|60001|25490|85.175.96.0/22|RU|ripencc|2004-12-22|STC-AS, RU
87.123.245.102|/Lana:1.0.0.1/|60001|8881|87.123.240.0/21|DE|ripencc|2005-07-27|VERSATEL, DE
87.123.245.105|/Lana:1.0.0.1/|60001|8881|87.123.240.0/21|DE|ripencc|2005-07-27|VERSATEL, DE
87.123.245.114|/Lana:1.0.0.1/|60001|8881|87.123.240.0/21|DE|ripencc|2005-07-27|VERSATEL, DE
87.123.245.127|/Lana:1.0.0.1/|60001|8881|87.123.240.0/21|DE|ripencc|2005-07-27|VERSATEL, DE
88.198.62.49|/Lana:1.0.0.1/|60001|24940|88.198.0.0/16|DE|ripencc|2005-12-27|HETZNER-AS, DE
89.142.125.41|/Lana:1.0.0.1/|60001|5603|89.142.64.0/18|SI|ripencc|2006-03-03|SIOL-NET Telekom Slovenije d.d., SI
89.142.64.85|/Lana:1.0.0.1/|60001||||||
89.71.156.196|/Lana:1.0.0.1/|60001|6830|89.64.0.0/13|PL|ripencc|2006-02-22|LIBERTYGLOBAL Liberty Global formerly UPC Broadband Holding, aka AORTA, NL
90.41.142.20|/Lana:1.0.0.1/|60001|3215|90.41.0.0/16|FR|ripencc|2006-03-02|France Telecom - Orange, FR
91.37.228.88|/Lana:1.0.0.1/|60001|3320|91.0.0.0/10|DE|ripencc|2006-07-03|DTAG Internet service provider operations, DE
93.103.106.15|/Lana:1.0.0.1/|60001|34779|93.103.96.0/19|SI|ripencc|2008-03-14|T-2-AS AS set propagated by T-2 d.o.o., SI
93.103.20.240|/Lana:1.0.0.1/|60001|34779|93.103.0.0/19|SI|ripencc|2008-03-14|T-2-AS AS set propagated by T-2 d.o.o., SI
94.28.199.67|/Lana:1.0.0.1/|60001|12389|94.28.192.0/18|RU|ripencc|2008-06-19|ROSTELECOM-AS, RU
95.217.77.209|/Lana:1.0.0.1/|60001|24940|95.217.0.0/16|DE|ripencc|2009-02-24|HETZNER-AS, DE
99.148.47.138|/Lana:1.0.0.1/|60001||||||
