# https://chainz.cryptoid.info/ and whois results
# Lanacoin
IP Address|Subver|Version|ASN|BGP Prefix|CC|Registry|Allocated|AS Name
103.137.12.125|/Lana:1.0.0.1/|60001||||||
109.116.20.105|/Lana:1.0.0.1/|60001||||||
109.182.12.46|/Lana:1.0.0.1/|60001||||||
109.252.66.11|/Lana:1.0.0.1/|60001||||||
117.20.70.57|/Lana:1.0.0.1/|60001||||||
146.212.125.31|/Lana:1.0.0.1/|60001||||||
151.237.173.174|/Lana:1.0.0.1/|60001||||||
155.93.227.23|/Lana:1.0.0.1/|60001||||||
159.65.206.24|/Lana:1.0.0.1/|60001||||||
176.123.218.228|/Lana:1.0.0.1/|60001||||||
178.178.80.107|/Lana:1.0.0.1/|60001||||||
185.244.212.40|/Lana:1.0.0.1/|60001||||||
189.29.170.154|/Lana:1.0.0.1/|60001||||||
193.164.140.162|/Lana:1.0.0.1/|60001||||||
193.77.138.199|/Lana:1.0.0.1/|60001||||||
193.77.158.82|/Lana:1.0.0.1/|60001||||||
2.126.59.226|/Lana:1.0.0.1/|60001||||||
2.220.192.176|/Lana:1.0.0.1/|60001|5607|2.216.0.0/13|GB|ripencc|2010-12-03|BSKYB-BROADBAND-AS, GB
217.160.244.15|/Lana:1.0.0.1/|60001|8560|217.160.0.0/16|DE|ripencc|2001-03-07|IONOS-AS This is the joint network for IONOS, Fasthosts, Arsys, 1&1 Mail and Media and 1&1 Telecom. Formerly known as 1&1 Internet SE., DE
24.132.202.61|/Lana:1.0.0.1/|60001|33915|24.132.128.0/17|NL|ripencc|2000-01-17|TNF-AS, NL
37.24.189.124|/Lana:1.0.0.1/|60001|3209|37.24.128.0/17|DE|ripencc|2011-12-22|VODANET International IP-Backbone of Vodafone, DE
38.15.213.20|/Lana:1.0.0.1/|60001||||||
44.226.133.129|/Lana:1.0.0.1/|60001||||||
45.132.247.73|/Lana:1.0.0.1/|60001||||||
46.101.235.143|/Lana:1.0.0.1/|60001||||||
5.227.26.21|/Lana:1.0.0.1/|60001|8580|5.227.24.0/22|RU|ripencc|2012-09-07|SANDY MTS Nizhniy Novgorod, Russia, RU
5.253.207.11|/Lana:1.0.0.1/|60001|9009|5.253.207.0/24|RO|ripencc|2019-02-11|M247, GB
51.38.57.53|/Lana:1.0.0.1/|60001||||||
62.171.190.193|/Lana:1.0.0.1/|60001|51167|62.171.190.0/23|DE|ripencc|2000-08-18|CONTABO, DE
62.238.178.129|/Lana:1.0.0.1/|60001|15542|62.238.0.0/16|NL|ripencc|2000-11-02|ZEELANDNET DELTA Fiber Nederland, NL
66.55.78.57|/Lana:1.0.0.1/|60001|8100|66.55.78.0/24|US|arin|2009-10-08|ASN-QUADRANET-GLOBAL, US
71.205.83.216|/Lana:1.0.0.1/|60001||||||
72.224.195.138|/Lana:1.0.0.1/|60001|11351|72.224.0.0/16|US|arin|2005-07-21|TWC-11351-NORTHEAST, US
74.136.37.85|/Lana:1.0.0.1/|60001|10796|74.128.0.0/12|US|arin|2006-04-07|TWC-10796-MIDWEST, US
76.68.42.191|/Lana:1.0.0.1/|60001|577|76.68.0.0/16|CA|arin|2006-12-04|BACOM, CA
77.38.50.61|/Lana:1.0.0.1/|60001|3212|77.38.0.0/17|SI|ripencc|2007-03-22|TELEMACH Broadband Access & Carrier Services, SI
79.184.232.184|/Lana:1.0.0.1/|60001|5617|79.184.0.0/13|PL|ripencc|2007-06-15|TPNET, PL
81.93.71.42|/Lana:1.0.0.1/|60001|25144|81.93.64.0/19|BA|ripencc|2002-08-07|TELEKOM-SRPSKE-AS Kralja Petra I Karadjordjevica 61a, BA
83.166.112.117|/Lana:1.0.0.1/|60001|51009|83.166.96.0/19|RU|ripencc|2010-05-12|NICOS-MSK Nicos Autonomous System, RU
84.162.170.179|/Lana:1.0.0.1/|60001|3320|84.128.0.0/10|DE|ripencc|2004-03-10|DTAG Internet service provider operations, DE
85.113.216.124|/Lana:1.0.0.1/|60001||||||
86.9.173.126|/Lana:1.0.0.1/|60001|5089|86.9.0.0/16|GB|ripencc|2005-03-29|NTL, GB
87.123.245.106|/Lana:1.0.0.1/|60001||||||
87.123.245.114|/Lana:1.0.0.1/|60001||||||
87.123.245.159|/Lana:1.0.0.1/|60001|8881|87.123.240.0/21|DE|ripencc|2005-07-27|VERSATEL, DE
88.198.62.49|/Lana:1.0.0.1/|60001|24940|88.198.0.0/16|DE|ripencc|2005-12-27|HETZNER-AS, DE
88.4.177.78|/Lana:1.0.0.1/|60001|3352|88.4.0.0/16|ES|ripencc|2005-07-13|TELEFONICA_DE_ESPANA, ES
89.142.125.41|/Lana:1.0.0.1/|60001|5603|89.142.64.0/18|SI|ripencc|2006-03-03|SIOL-NET Telekom Slovenije d.d., SI
89.142.64.85|/Lana:1.0.0.1/|60001||||||
89.233.108.211|/Lana:1.0.0.1/|60001||||||
89.71.156.196|/Lana:1.0.0.1/|60001|6830|89.64.0.0/13|PL|ripencc|2006-02-22|LIBERTYGLOBAL Liberty Global formerly UPC Broadband Holding, aka AORTA, NL
90.195.156.151|/Lana:1.0.0.1/|60001|5607|90.192.0.0/11|GB|ripencc|2006-05-31|BSKYB-BROADBAND-AS, GB
92.129.152.37|/Lana:1.0.0.1/|60001||||||
93.103.13.25|???|0|34779|93.103.0.0/19|SI|ripencc|2008-03-14|T-2-AS AS set propagated by T-2 d.o.o., SI
93.103.20.240|/Lana:1.0.0.1/|60001|34779|93.103.0.0/19|SI|ripencc|2008-03-14|T-2-AS AS set propagated by T-2 d.o.o., SI
94.198.41.108|/Lana:1.0.0.1/|60001|9009|94.198.41.0/24|RO|ripencc|2018-06-28|M247, GB
94.28.201.231|/Lana:1.0.0.1/|60001|12389|94.28.192.0/18|RU|ripencc|2008-06-19|ROSTELECOM-AS, RU
95.217.77.209|/Lana:1.0.0.1/|60001||||||
99.148.47.138|/Lana:1.0.0.1/|60001||||||
