# https://chainz.cryptoid.info/ and whois results
# Lanacoin
IP Address|Subver|Version|ASN|BGP Prefix|CC|Registry|Allocated|AS Name
103.137.12.30|/Lana:1.0.0.1/|60001||||||
109.116.20.105|/Lana:1.0.0.1/|60001||||||
109.182.12.46|/Lana:1.0.0.1/|60001||||||
109.212.92.166|/Lana:1.0.0.1/|60001||||||
109.252.66.11|/Lana:1.0.0.1/|60001||||||
115.63.186.8|/Lana:1.0.0.1/|60001||||||
135.125.235.154|/Lana:1.0.0.1/|60001||||||
142.202.79.61|/Lana:1.0.0.1/|60001||||||
146.212.125.31|/Lana:1.0.0.1/|60001||||||
159.65.206.24|/Lana:1.0.0.1/|60001||||||
174.58.101.102|/Lana:1.0.0.1/|60001||||||
174.94.41.47|/Lana:1.0.0.1/|60001||||||
176.123.218.228|/Lana:1.0.0.1/|60001||||||
178.46.46.40|/Lana:1.0.0.1/|60001||||||
182.3.5.79|/Lana:1.0.0.1/|60001||||||
185.82.202.162|/Lana:1.0.0.1/|60001||||||
189.29.170.154|/Lana:1.0.0.1/|60001||||||
192.222.139.154|/Lana:1.0.0.1/|60001||||||
193.164.140.162|/Lana:1.0.0.1/|60001||||||
193.77.158.82|/Lana:1.0.0.1/|60001||||||
2.126.56.40|/Lana:1.0.0.1/|60001||||||
216.209.206.4|/Lana:1.0.0.1/|60001||||||
217.160.244.15|/Lana:1.0.0.1/|60001||||||
24.132.202.61|/Lana:1.0.0.1/|60001||||||
24.50.85.229|/Lana:1.0.0.1/|60001||||||
24.93.109.9|/Lana:1.0.0.1/|60001||||||
31.15.164.16|/Lana:1.0.0.1/|60001||||||
37.24.189.124|/Lana:1.0.0.1/|60001||||||
45.132.247.73|/Lana:1.0.0.1/|60001||||||
46.101.235.143|/Lana:1.0.0.1/|60001||||||
5.227.24.100|/Lana:1.0.0.1/|60001||||||
5.227.30.22|/Lana:1.0.0.1/|60001||||||
62.171.190.193|/Lana:1.0.0.1/|60001||||||
62.238.178.129|/Lana:1.0.0.1/|60001||||||
66.55.78.57|/Lana:1.0.0.1/|60001|8100|66.55.78.0/24|US|arin|2009-10-08|ASN-QUADRANET-GLOBAL, US
71.205.83.216|/Lana:1.0.0.1/|60001||||||
72.224.195.138|/Lana:1.0.0.1/|60001|11351|72.224.0.0/16|US|arin|2005-07-21|TWC-11351-NORTHEAST, US
74.136.37.85|/Lana:1.0.0.1/|60001|10796|74.128.0.0/12|US|arin|2006-04-07|TWC-10796-MIDWEST, US
77.38.50.61|/Lana:1.0.0.1/|60001|3212|77.38.0.0/17|SI|ripencc|2007-03-22|TELEMACH Broadband Access & Carrier Services, SI
80.101.10.20|/Lana:1.0.0.1/|60001|3265|80.100.0.0/15|NL|ripencc|2001-07-16|XS4ALL-NL Amsterdam, NL
83.166.112.117|/Lana:1.0.0.1/|60001|51009|83.166.96.0/19|RU|ripencc|2010-05-12|NICOS-MSK Nicos Autonomous System, RU
83.31.148.194|/Lana:1.0.0.1/|60001|5617|83.24.0.0/13|PL|ripencc|2003-12-03|TPNET, PL
83.31.236.38|/Lana:1.0.0.1/|60001|5617|83.24.0.0/13|PL|ripencc|2003-12-03|TPNET, PL
83.31.4.132|/Lana:1.0.0.1/|60001|5617|83.24.0.0/13|PL|ripencc|2003-12-03|TPNET, PL
83.56.190.156|/Lana:1.0.0.1/|60001|3352|83.56.0.0/16|ES|ripencc|2004-10-07|TELEFONICA_DE_ESPANA, ES
84.162.168.95|/Lana:1.0.0.1/|60001|3320|84.128.0.0/10|DE|ripencc|2004-03-10|DTAG Internet service provider operations, DE
84.17.46.174|/Lana:1.0.0.1/|60001|60068|84.17.46.0/23|GB|ripencc|2004-07-23|CDN77 ^_^, GB
85.113.216.124|/Lana:1.0.0.1/|60001||||||
85.173.126.73|/Lana:1.0.0.1/|60001|12389|85.173.126.0/24|RU|ripencc|2004-12-22|ROSTELECOM-AS, RU
86.9.173.126|/Lana:1.0.0.1/|60001|5089|86.9.0.0/16|GB|ripencc|2005-03-29|NTL, GB
87.123.245.125|/Lana:1.0.0.1/|60001|8881|87.123.240.0/21|DE|ripencc|2005-07-27|VERSATEL, DE
87.123.245.149|/Lana:1.0.0.1/|60001|8881|87.123.240.0/21|DE|ripencc|2005-07-27|VERSATEL, DE
87.209.136.7|/Lana:1.0.0.1/|60001|50266|87.209.0.0/16|NL|ripencc|2005-06-02|TMOBILE-THUIS, NL
88.198.62.49|/Lana:1.0.0.1/|60001|24940|88.198.0.0/16|DE|ripencc|2005-12-27|HETZNER-AS, DE
89.142.124.21|/Lana:1.0.0.1/|60001|5603|89.142.64.0/18|SI|ripencc|2006-03-03|SIOL-NET Telekom Slovenije d.d., SI
89.142.125.41|/Lana:1.0.0.1/|60001|5603|89.142.64.0/18|SI|ripencc|2006-03-03|SIOL-NET Telekom Slovenije d.d., SI
89.142.72.97|/Lana:1.0.0.1/|60001||||||
89.212.11.158|/Lana:1.0.0.1/|60001|34779|89.212.0.0/18|SI|ripencc|2006-05-03|T-2-AS AS set propagated by T-2 d.o.o., SI
89.64.121.177|/Lana:1.0.0.1/|60001|6830|89.64.0.0/13|PL|ripencc|2006-02-22|LIBERTYGLOBAL Liberty Global formerly UPC Broadband Holding, aka AORTA, NL
89.71.156.196|/Lana:1.0.0.1/|60001|6830|89.64.0.0/13|PL|ripencc|2006-02-22|LIBERTYGLOBAL Liberty Global formerly UPC Broadband Holding, aka AORTA, NL
91.206.16.214|/Lana:1.0.0.1/|60001||||||
93.103.20.240|/Lana:1.0.0.1/|60001|34779|93.103.0.0/19|SI|ripencc|2008-03-14|T-2-AS AS set propagated by T-2 d.o.o., SI
94.28.149.248|/Lana:1.0.0.1/|60001|12389|94.28.128.0/18|RU|ripencc|2008-06-19|ROSTELECOM-AS, RU
95.217.77.209|/Lana:1.0.0.1/|60001||||||
97.73.244.191|/Lana:1.0.0.1/|60001||||||
99.148.47.138|/Lana:1.0.0.1/|60001||||||
