# https://chainz.cryptoid.info/ and whois results
# Lanacoin
IP Address|Subver|Version|ASN|BGP Prefix|CC|Registry|Allocated|AS Name
103.80.121.175|/Lana:1.0.0.1/|60001||||||
109.182.11.220|/Lana:1.0.0.1/|60001||||||
109.252.66.11|/Lana:1.0.0.1/|60001||||||
13.51.171.2|/Lana:1.0.0.1/|60001||||||
142.202.79.16|/Lana:1.0.0.1/|60001||||||
144.217.193.121|/Lana:1.0.0.1/|60001||||||
146.212.125.31|/Lana:1.0.0.1/|60001||||||
157.90.181.171|/Lana:1.0.0.1/|60001||||||
159.65.206.24|/Lana:1.0.0.1/|60001||||||
176.123.218.228|/Lana:1.0.0.1/|60001||||||
176.9.5.42|/Lana:1.0.0.1/|60001||||||
185.244.212.181|/Lana:1.0.0.1/|60001||||||
185.82.202.162|/Lana:1.0.0.1/|60001||||||
189.29.170.154|/Lana:1.0.0.1/|60001||||||
193.164.140.162|/Lana:1.0.0.1/|60001||||||
193.77.158.82|/Lana:1.0.0.1/|60001||||||
194.150.97.27|/Lana:1.0.0.1/|60001||||||
197.210.64.217|???|0|29465|197.210.64.0/24|NG|afrinic|2013-03-06|VCG-AS, NG
2.124.57.156|/Lana:1.0.0.1/|60001||||||
203.78.129.166|/Lana:1.0.0.1/|60001||||||
216.209.206.4|/Lana:1.0.0.1/|60001||||||
24.132.202.61|/Lana:1.0.0.1/|60001|33915|24.132.128.0/17|NL|ripencc|2000-01-17|TNF-AS, NL
31.15.164.16|/Lana:1.0.0.1/|60001|3212|31.15.128.0/17|SI|ripencc|2011-04-20|TELEMACH Broadband Access & Carrier Services, SI
37.24.189.124|/Lana:1.0.0.1/|60001|3209|37.24.128.0/17|DE|ripencc|2011-12-22|VODANET International IP-Backbone of Vodafone, DE
44.226.133.129|/Lana:1.0.0.1/|60001||||||
45.132.247.73|/Lana:1.0.0.1/|60001||||||
46.101.235.143|/Lana:1.0.0.1/|60001||||||
5.9.145.235|/Lana:1.0.0.1/|60001|24940|5.9.0.0/16|DE|ripencc|2012-04-25|HETZNER-AS, DE
51.210.180.98|/Lana:1.0.0.1/|60001||||||
51.38.57.53|/Lana:1.0.0.1/|60001||||||
51.68.204.201|/Lana:1.0.0.1/|60001||||||
62.171.190.193|/Lana:1.0.0.1/|60001|51167|62.171.190.0/23|DE|ripencc|2000-08-18|CONTABO, DE
62.238.178.129|/Lana:1.0.0.1/|60001|15542|62.238.0.0/16|NL|ripencc|2000-11-02|ZEELANDNET DELTA Fiber Nederland, NL
66.55.78.57|/Lana:1.0.0.1/|60001|8100|66.55.78.0/24|US|arin|2009-10-08|ASN-QUADRANET-GLOBAL, US
71.205.83.216|/Lana:1.0.0.1/|60001||||||
72.224.195.138|/Lana:1.0.0.1/|60001|11351|72.224.0.0/16|US|arin|2005-07-21|TWC-11351-NORTHEAST, US
74.136.37.85|/Lana:1.0.0.1/|60001|10796|74.128.0.0/12|US|arin|2006-04-07|TWC-10796-MIDWEST, US
77.38.50.61|/Lana:1.0.0.1/|60001|3212|77.38.0.0/17|SI|ripencc|2007-03-22|TELEMACH Broadband Access & Carrier Services, SI
79.184.226.167|/Lana:1.0.0.1/|60001|5617|79.184.0.0/13|PL|ripencc|2007-06-15|TPNET, PL
80.101.10.20|/Lana:1.0.0.1/|60001|3265|80.100.0.0/15|NL|ripencc|2001-07-16|XS4ALL-NL Amsterdam, NL
81.93.71.42|/Lana:1.0.0.1/|60001|25144|81.93.64.0/19|BA|ripencc|2002-08-07|TELEKOM-SRPSKE-AS Kralja Petra I Karadjordjevica 61a, BA
83.166.112.117|/Lana:1.0.0.1/|60001|51009|83.166.96.0/19|RU|ripencc|2010-05-12|NICOS-MSK Nicos Autonomous System, RU
84.162.162.215|/Lana:1.0.0.1/|60001|3320|84.128.0.0/10|DE|ripencc|2004-03-10|DTAG Internet service provider operations, DE
85.14.123.2|/Lana:1.0.0.1/|60001||||||
86.9.173.126|/Lana:1.0.0.1/|60001|5089|86.9.0.0/16|GB|ripencc|2005-03-29|NTL, GB
87.123.245.101|/Lana:1.0.0.1/|60001|8881|87.123.240.0/21|DE|ripencc|2005-07-27|VERSATEL, DE
87.123.245.148|/Lana:1.0.0.1/|60001|8881|87.123.240.0/21|DE|ripencc|2005-07-27|VERSATEL, DE
88.198.62.49|/Lana:1.0.0.1/|60001|24940|88.198.0.0/16|DE|ripencc|2005-12-27|HETZNER-AS, DE
89.142.118.109|/Lana:1.0.0.1/|60001|5603|89.142.64.0/18|SI|ripencc|2006-03-03|SIOL-NET Telekom Slovenije d.d., SI
89.142.71.234|/Lana:1.0.0.1/|60001||||||
89.212.11.158|/Lana:1.0.0.1/|60001|34779|89.212.0.0/18|SI|ripencc|2006-05-03|T-2-AS AS set propagated by T-2 d.o.o., SI
89.71.156.196|/Lana:1.0.0.1/|60001|6830|89.64.0.0/13|PL|ripencc|2006-02-22|LIBERTYGLOBAL Liberty Global formerly UPC Broadband Holding, aka AORTA, NL
93.103.146.102|/Lana:1.0.0.1/|60001|34779|93.103.128.0/19|SI|ripencc|2008-03-14|T-2-AS AS set propagated by T-2 d.o.o., SI
93.103.20.240|/Lana:1.0.0.1/|60001|34779|93.103.0.0/19|SI|ripencc|2008-03-14|T-2-AS AS set propagated by T-2 d.o.o., SI
95.217.77.209|/Lana:1.0.0.1/|60001||||||
95.90.198.115|/Lana:1.0.0.1/|60001|3209|95.88.0.0/14|DE|ripencc|2008-12-15|VODANET International IP-Backbone of Vodafone, DE
97.73.244.184|/Lana:1.0.0.1/|60001|6621|97.73.244.0/22|US|arin|2007-08-03|HNS-DIRECPC, US
99.148.47.138|/Lana:1.0.0.1/|60001||||||
