# https://chainz.cryptoid.info/ and whois results
# Lanacoin
IP Address|Subver|Version|ASN|BGP Prefix|CC|Registry|Allocated|AS Name
109.182.2.41|/Lana:1.0.0.1/|60001||||||
109.252.66.11|/Lana:1.0.0.1/|60001||||||
142.202.79.16|/Lana:1.0.0.1/|60001||||||
146.212.125.31|/Lana:1.0.0.1/|60001||||||
157.90.181.171|/Lana:1.0.0.1/|60001||||||
159.65.206.24|/Lana:1.0.0.1/|60001||||||
174.58.101.102|/Lana:1.0.0.1/|60001||||||
176.123.218.228|/Lana:1.0.0.1/|60001||||||
176.9.5.42|/Lana:1.0.0.1/|60001||||||
185.82.202.162|/Lana:1.0.0.1/|60001||||||
188.17.35.189|/Lana:1.0.0.1/|60001||||||
189.29.170.154|/Lana:1.0.0.1/|60001||||||
192.222.229.98|/Lana:1.0.0.1/|60001||||||
193.164.140.162|/Lana:1.0.0.1/|60001||||||
193.77.158.82|/Lana:1.0.0.1/|60001||||||
2.124.59.190|/Lana:1.0.0.1/|60001||||||
216.209.206.4|/Lana:1.0.0.1/|60001||||||
217.160.244.15|/Lana:1.0.0.1/|60001||||||
24.132.202.61|/Lana:1.0.0.1/|60001||||||
24.93.109.9|/Lana:1.0.0.1/|60001||||||
31.15.164.16|/Lana:1.0.0.1/|60001||||||
37.24.189.124|/Lana:1.0.0.1/|60001||||||
44.226.133.129|/Lana:1.0.0.1/|60001||||||
45.132.247.73|/Lana:1.0.0.1/|60001||||||
46.101.235.143|/Lana:1.0.0.1/|60001||||||
5.227.28.52|/Lana:1.0.0.1/|60001||||||
5.9.145.235|/Lana:1.0.0.1/|60001||||||
51.38.57.53|/Lana:1.0.0.1/|60001||||||
51.68.204.201|/Lana:1.0.0.1/|60001||||||
62.171.190.193|/Lana:1.0.0.1/|60001||||||
62.238.178.129|/Lana:1.0.0.1/|60001|15542|62.238.0.0/16|NL|ripencc|2000-11-02|ZEELANDNET DELTA Fiber Nederland, NL
66.55.78.57|/Lana:1.0.0.1/|60001|8100|66.55.78.0/24|US|arin|2009-10-08|ASN-QUADRANET-GLOBAL, US
71.205.83.216|/Lana:1.0.0.1/|60001||||||
72.224.195.138|/Lana:1.0.0.1/|60001|11351|72.224.0.0/16|US|arin|2005-07-21|TWC-11351-NORTHEAST, US
73.235.46.197|???|0||||||
74.136.37.85|/Lana:1.0.0.1/|60001|10796|74.128.0.0/12|US|arin|2006-04-07|TWC-10796-MIDWEST, US
77.38.50.61|/Lana:1.0.0.1/|60001|3212|77.38.0.0/17|SI|ripencc|2007-03-22|TELEMACH Broadband Access & Carrier Services, SI
79.184.195.254|/Lana:1.0.0.1/|60001|5617|79.184.0.0/13|PL|ripencc|2007-06-15|TPNET, PL
83.166.112.117|/Lana:1.0.0.1/|60001|51009|83.166.96.0/19|RU|ripencc|2010-05-12|NICOS-MSK Nicos Autonomous System, RU
84.162.162.215|/Lana:1.0.0.1/|60001||||||
85.14.123.2|/Lana:1.0.0.1/|60001||||||
86.9.173.126|/Lana:1.0.0.1/|60001||||||
87.123.245.100|/Lana:1.0.0.1/|60001||||||
87.123.245.117|/Lana:1.0.0.1/|60001||||||
88.198.62.49|/Lana:1.0.0.1/|60001||||||
89.142.124.21|/Lana:1.0.0.1/|60001||||||
89.142.71.234|/Lana:1.0.0.1/|60001||||||
89.212.11.158|/Lana:1.0.0.1/|60001||||||
89.71.156.196|/Lana:1.0.0.1/|60001||||||
93.103.20.240|/Lana:1.0.0.1/|60001||||||
95.217.77.209|/Lana:1.0.0.1/|60001||||||
95.55.101.149|/Lana:1.0.0.1/|60001||||||
95.90.198.115|/Lana:1.0.0.1/|60001||||||
97.73.244.162|/Lana:1.0.0.1/|60001||||||
99.148.47.138|/Lana:1.0.0.1/|60001||||||
