# https://chainz.cryptoid.info/ and whois results
# Lanacoin
IP Address|Subver|Version|ASN|BGP Prefix|CC|Registry|Allocated|AS Name
109.116.128.129|/Lana:1.0.0.1/|60001||||||
109.182.12.46|/Lana:1.0.0.1/|60001|5603|109.182.0.0/17|SI|ripencc|2009-09-25|SIOL-NET Telekom Slovenije d.d., SI
109.252.54.71|/Lana:1.0.0.1/|60001|25513|109.252.0.0/16|RU|ripencc|2009-12-07|ASN-MGTS-USPD, RU
115.50.196.109|/Lana:1.0.0.1/|60001||||||
146.212.108.235|/Lana:1.0.0.1/|60001|21283|146.212.0.0/16|SI|ripencc|2011-07-13|A1SI-AS A1 Slovenija, SI
151.237.173.174|/Lana:1.0.0.1/|60001|29072|151.237.172.0/22|RU|ripencc|2012-08-16|RDTC-AS RDTC Autonomous System ISP at Novokuznetsk city, RU
159.65.206.24|/Lana:1.0.0.1/|60001|14061|159.65.192.0/20|US|arin|2017-10-24|DIGITALOCEAN-ASN, US
184.148.113.175|/Lana:1.0.0.1/|60001|577|184.148.0.0/16|CA|arin|2010-04-12|BACOM, CA
185.210.219.100|/Lana:1.0.0.1/|60001|9009|185.210.219.0/24|RO|ripencc|2017-06-29|M247, GB
185.82.202.162|/Lana:1.0.0.1/|60001|60117|185.82.202.0/24|AE|ripencc|2014-12-31|HS, AE
189.29.170.154|/Lana:1.0.0.1/|60001|28573|189.29.128.0/18|BR|lacnic|2007-04-02|CLARO S.A., BR
193.164.140.162|/Lana:1.0.0.1/|60001|41427|193.164.140.0/24|SI|ripencc|2006-08-18|MARC-NET_AS, SI
193.77.158.82|/Lana:1.0.0.1/|60001|5603|193.77.128.0/18|SI|ripencc|1993-09-01|SIOL-NET Telekom Slovenije d.d., SI
212.35.169.176|/Lana:1.0.0.1/|60001|12389|212.35.168.0/23|RU|ripencc|2011-02-14|ROSTELECOM-AS, RU
216.209.206.4|/Lana:1.0.0.1/|60001|15321|216.209.206.0/24|CA|arin|1999-03-12|GROUPE-MASKATEL-LP, CA
24.132.202.61|/Lana:1.0.0.1/|60001|33915|24.132.128.0/17|NL|ripencc|2000-01-17|TNF-AS, NL
37.24.189.124|/Lana:1.0.0.1/|60001|3209|37.24.128.0/17|DE|ripencc|2011-12-22|VODANET International IP-Backbone of Vodafone, DE
44.226.133.129|/Lana:1.0.0.1/|60001||||||
45.132.247.73|/Lana:1.0.0.1/|60001||||||
46.101.235.143|/Lana:1.0.0.1/|60001||||||
46.123.198.65|/Lana:1.0.0.1/|60001||||||
51.38.57.53|/Lana:1.0.0.1/|60001||||||
62.238.178.129|/Lana:1.0.0.1/|60001|15542|62.238.0.0/16|NL|ripencc|2000-11-02|ZEELANDNET DELTA Fiber Nederland, NL
66.55.78.57|/Lana:1.0.0.1/|60001|8100|66.55.78.0/24|US|arin|2009-10-08|ASN-QUADRANET-GLOBAL, US
71.205.83.216|/Lana:1.0.0.1/|60001||||||
74.136.37.85|/Lana:1.0.0.1/|60001||||||
77.38.50.61|/Lana:1.0.0.1/|60001|3212|77.38.0.0/17|SI|ripencc|2007-03-22|TELEMACH Broadband Access & Carrier Services, SI
79.184.190.26|/Lana:1.0.0.1/|60001|5617|79.184.0.0/13|PL|ripencc|2007-06-15|TPNET, PL
80.101.10.20|/Lana:1.0.0.1/|60001|3265|80.100.0.0/15|NL|ripencc|2001-07-16|XS4ALL-NL Amsterdam, NL
81.93.71.42|/Lana:1.0.0.1/|60001|25144|81.93.64.0/19|BA|ripencc|2002-08-07|TELEKOM-SRPSKE-AS Kralja Petra I Karadjordjevica 61a, BA
83.23.246.5|/Lana:1.0.0.1/|60001|5617|83.16.0.0/13|PL|ripencc|2003-12-03|TPNET, PL
83.31.241.177|/Lana:1.0.0.1/|60001|5617|83.24.0.0/13|PL|ripencc|2003-12-03|TPNET, PL
84.162.170.148|/Lana:1.0.0.1/|60001|3320|84.128.0.0/10|DE|ripencc|2004-03-10|DTAG Internet service provider operations, DE
85.113.216.124|/Lana:1.0.0.1/|60001||||||
85.175.97.16|/Lana:1.0.0.1/|60001|25490|85.175.96.0/22|RU|ripencc|2004-12-22|STC-AS, RU
87.123.245.101|/Lana:1.0.0.1/|60001|8881|87.123.240.0/21|DE|ripencc|2005-07-27|VERSATEL, DE
87.123.245.102|/Lana:1.0.0.1/|60001|8881|87.123.240.0/21|DE|ripencc|2005-07-27|VERSATEL, DE
87.123.245.133|/Lana:1.0.0.1/|60001|8881|87.123.240.0/21|DE|ripencc|2005-07-27|VERSATEL, DE
87.209.136.7|/Lana:1.0.0.1/|60001|50266|87.209.0.0/16|NL|ripencc|2005-06-02|TMOBILE-THUIS, NL
88.198.62.49|/Lana:1.0.0.1/|60001|24940|88.198.0.0/16|DE|ripencc|2005-12-27|HETZNER-AS, DE
89.142.125.41|/Lana:1.0.0.1/|60001|5603|89.142.64.0/18|SI|ripencc|2006-03-03|SIOL-NET Telekom Slovenije d.d., SI
89.142.64.85|/Lana:1.0.0.1/|60001||||||
89.233.108.211|/Lana:1.0.0.1/|60001||||||
89.64.121.90|/Lana:1.0.0.1/|60001|6830|89.64.0.0/13|PL|ripencc|2006-02-22|LIBERTYGLOBAL Liberty Global formerly UPC Broadband Holding, aka AORTA, NL
89.71.156.196|/Lana:1.0.0.1/|60001|6830|89.64.0.0/13|PL|ripencc|2006-02-22|LIBERTYGLOBAL Liberty Global formerly UPC Broadband Holding, aka AORTA, NL
90.14.40.168|/Lana:1.0.0.1/|60001|3215|90.14.0.0/16|FR|ripencc|2006-03-02|France Telecom - Orange, FR
93.103.20.240|/Lana:1.0.0.1/|60001|34779|93.103.0.0/19|SI|ripencc|2008-03-14|T-2-AS AS set propagated by T-2 d.o.o., SI
95.217.77.209|/Lana:1.0.0.1/|60001||||||
99.148.47.138|/Lana:1.0.0.1/|60001||||||
