# https://chainz.cryptoid.info/ and whois results
# Lanacoin
IP Address|Subver|Version|ASN|BGP Prefix|CC|Registry|Allocated|AS Name
108.12.220.232|/Lana:1.0.0.1/|60001||||||
109.182.9.12|/Lana:1.0.0.1/|60001||||||
109.252.66.11|/Lana:1.0.0.1/|60001||||||
142.202.79.16|/Lana:1.0.0.1/|60001||||||
146.212.125.31|/Lana:1.0.0.1/|60001||||||
155.93.227.23|/Lana:1.0.0.1/|60001||||||
157.90.181.171|/Lana:1.0.0.1/|60001||||||
159.65.206.24|/Lana:1.0.0.1/|60001||||||
169.159.157.27|/Lana:1.0.0.1/|60001||||||
176.123.218.228|/Lana:1.0.0.1/|60001||||||
176.9.5.42|/Lana:1.0.0.1/|60001||||||
185.246.208.149|/Lana:1.0.0.1/|60001||||||
185.82.202.162|/Lana:1.0.0.1/|60001||||||
188.18.54.247|/Lana:1.0.0.1/|60001||||||
189.29.169.216|/Lana:1.0.0.1/|60001||||||
193.164.140.162|/Lana:1.0.0.1/|60001|41427|193.164.140.0/24|SI|ripencc|2006-08-18|MARC-NET_AS, SI
193.77.158.82|/Lana:1.0.0.1/|60001|5603|193.77.128.0/18|SI|ripencc|1993-09-01|SIOL-NET Telekom Slovenije d.d., SI
194.150.97.27|/Lana:1.0.0.1/|60001||||||
2.124.63.242|/Lana:1.0.0.1/|60001||||||
216.209.206.4|/Lana:1.0.0.1/|60001||||||
24.132.202.61|/Lana:1.0.0.1/|60001||||||
37.24.189.124|/Lana:1.0.0.1/|60001||||||
45.132.247.73|/Lana:1.0.0.1/|60001||||||
46.101.235.143|/Lana:1.0.0.1/|60001||||||
46.23.35.70|/Lana:1.0.0.1/|60001||||||
5.227.14.116|/Lana:1.0.0.1/|60001||||||
5.9.145.235|/Lana:1.0.0.1/|60001||||||
50.208.151.117|/Lana:1.0.0.1/|60001|7922|50.128.0.0/9|US|arin|2010-10-21|COMCAST-7922, US
51.38.57.53|/Lana:1.0.0.1/|60001||||||
51.68.204.201|/Lana:1.0.0.1/|60001|16276|51.68.0.0/16|FR|ripencc|1993-09-01|OVH, FR
62.171.190.193|/Lana:1.0.0.1/|60001|51167|62.171.190.0/23|DE|ripencc|2000-08-18|CONTABO, DE
62.238.178.129|/Lana:1.0.0.1/|60001|15542|62.238.0.0/16|NL|ripencc|2000-11-02|ZEELANDNET DELTA Fiber Nederland, NL
66.55.78.57|/Lana:1.0.0.1/|60001||||||
71.205.83.216|/Lana:1.0.0.1/|60001||||||
72.224.195.138|/Lana:1.0.0.1/|60001|11351|72.224.0.0/16|US|arin|2005-07-21|TWC-11351-NORTHEAST, US
74.136.37.85|/Lana:1.0.0.1/|60001|10796|74.128.0.0/12|US|arin|2006-04-07|TWC-10796-MIDWEST, US
76.67.53.223|/Lana:1.0.0.1/|60001||||||
77.38.50.61|/Lana:1.0.0.1/|60001|3212|77.38.0.0/17|SI|ripencc|2007-03-22|TELEMACH Broadband Access & Carrier Services, SI
80.101.10.20|/Lana:1.0.0.1/|60001|3265|80.100.0.0/15|NL|ripencc|2001-07-16|XS4ALL-NL Amsterdam, NL
80.127.232.192|/Lana:1.0.0.1/|60001|3265|80.126.0.0/15|NL|ripencc|2001-10-11|XS4ALL-NL Amsterdam, NL
81.93.71.42|/Lana:1.0.0.1/|60001|25144|81.93.64.0/19|BA|ripencc|2002-08-07|TELEKOM-SRPSKE-AS Kralja Petra I Karadjordjevica 61a, BA
83.166.112.117|/Lana:1.0.0.1/|60001|51009|83.166.96.0/19|RU|ripencc|2010-05-12|NICOS-MSK Nicos Autonomous System, RU
84.162.162.133|/Lana:1.0.0.1/|60001|3320|84.128.0.0/10|DE|ripencc|2004-03-10|DTAG Internet service provider operations, DE
84.162.171.53|/Lana:1.0.0.1/|60001|3320|84.128.0.0/10|DE|ripencc|2004-03-10|DTAG Internet service provider operations, DE
86.9.173.126|/Lana:1.0.0.1/|60001|5089|86.9.0.0/16|GB|ripencc|2005-03-29|NTL, GB
87.123.245.132|/Lana:1.0.0.1/|60001|8881|87.123.240.0/21|DE|ripencc|2005-07-27|VERSATEL, DE
87.123.245.140|/Lana:1.0.0.1/|60001|8881|87.123.240.0/21|DE|ripencc|2005-07-27|VERSATEL, DE
88.198.62.49|/Lana:1.0.0.1/|60001|24940|88.198.0.0/16|DE|ripencc|2005-12-27|HETZNER-AS, DE
88.204.18.3|/Lana:1.0.0.1/|60001|56981|88.204.16.0/20|RU|ripencc|2005-11-25|TOMSK-AS, RU
89.142.118.109|/Lana:1.0.0.1/|60001|5603|89.142.64.0/18|SI|ripencc|2006-03-03|SIOL-NET Telekom Slovenije d.d., SI
89.142.71.234|/Lana:1.0.0.1/|60001||||||
89.212.11.158|/Lana:1.0.0.1/|60001|34779|89.212.0.0/18|SI|ripencc|2006-05-03|T-2-AS AS set propagated by T-2 d.o.o., SI
89.71.156.196|/Lana:1.0.0.1/|60001|6830|89.64.0.0/13|PL|ripencc|2006-02-22|LIBERTYGLOBAL Liberty Global formerly UPC Broadband Holding, aka AORTA, NL
91.206.16.214|/Lana:1.0.0.1/|60001||||||
93.103.20.240|/Lana:1.0.0.1/|60001|34779|93.103.0.0/19|SI|ripencc|2008-03-14|T-2-AS AS set propagated by T-2 d.o.o., SI
95.217.77.209|/Lana:1.0.0.1/|60001||||||
95.90.198.115|/Lana:1.0.0.1/|60001|3209|95.88.0.0/14|DE|ripencc|2008-12-15|VODANET International IP-Backbone of Vodafone, DE
97.73.244.161|/Lana:1.0.0.1/|60001|6621|97.73.244.0/22|US|arin|2007-08-03|HNS-DIRECPC, US
97.73.245.9|/Lana:1.0.0.1/|60001|6621|97.73.244.0/22|US|arin|2007-08-03|HNS-DIRECPC, US
99.148.47.138|/Lana:1.0.0.1/|60001||||||
