# https://chainz.cryptoid.info/ and whois results
# Lanacoin
IP Address|Subver|Version|ASN|BGP Prefix|CC|Registry|Allocated|AS Name
109.116.20.105|/Lana:1.0.0.1/|60001|30722|109.116.0.0/15|IT|ripencc|2009-06-12|VODAFONE-IT-ASN, IT
109.182.12.46|/Lana:1.0.0.1/|60001|5603|109.182.0.0/17|SI|ripencc|2009-09-25|SIOL-NET Telekom Slovenije d.d., SI
109.252.66.11|/Lana:1.0.0.1/|60001||||||
114.122.12.202|/Lana:1.0.0.1/|60001|23693|114.122.0.0/19|ID|apnic|2008-05-22|TELKOMSEL-ASN-ID PT. Telekomunikasi Selular, ID
151.237.173.174|/Lana:1.0.0.1/|60001|29072|151.237.172.0/22|RU|ripencc|2012-08-16|RDTC-AS RDTC Autonomous System ISP at Novokuznetsk city, RU
159.65.206.24|/Lana:1.0.0.1/|60001|14061|159.65.192.0/20|US|arin|2017-10-24|DIGITALOCEAN-ASN, US
176.123.218.228|/Lana:1.0.0.1/|60001|59584|176.123.216.0/22|RU|ripencc|2012-07-31|INDIKOM-AS, RU
182.3.9.187|/Lana:1.0.0.1/|60001|23693|182.3.0.0/19|ID|apnic|2010-01-29|TELKOMSEL-ASN-ID PT. Telekomunikasi Selular, ID
188.17.58.92|/Lana:1.0.0.1/|60001|12389|188.17.0.0/18|RU|ripencc|2009-02-03|ROSTELECOM-AS, RU
189.29.170.154|/Lana:1.0.0.1/|60001|28573|189.29.128.0/18|BR|lacnic|2007-04-02|CLARO S.A., BR
193.164.140.162|/Lana:1.0.0.1/|60001|41427|193.164.140.0/24|SI|ripencc|2006-08-18|MARC-NET_AS, SI
193.77.158.82|/Lana:1.0.0.1/|60001|5603|193.77.128.0/18|SI|ripencc|1993-09-01|SIOL-NET Telekom Slovenije d.d., SI
2.126.59.226|/Lana:1.0.0.1/|60001|5607|2.120.0.0/13|GB|ripencc|2010-04-14|BSKYB-BROADBAND-AS, GB
217.160.244.15|/Lana:1.0.0.1/|60001|8560|217.160.0.0/16|DE|ripencc|2001-03-07|IONOS-AS This is the joint network for IONOS, Fasthosts, Arsys, 1&1 Mail and Media and 1&1 Telecom. Formerly known as 1&1 Internet SE., DE
24.132.202.61|/Lana:1.0.0.1/|60001|33915|24.132.128.0/17|NL|ripencc|2000-01-17|TNF-AS, NL
31.15.164.16|/Lana:1.0.0.1/|60001|3212|31.15.128.0/17|SI|ripencc|2011-04-20|TELEMACH Broadband Access & Carrier Services, SI
37.24.189.124|/Lana:1.0.0.1/|60001|3209|37.24.128.0/17|DE|ripencc|2011-12-22|VODANET International IP-Backbone of Vodafone, DE
38.15.213.20|/Lana:1.0.0.1/|60001|395354|38.15.208.0/20|US|arin|1991-04-16|ASN-STARRY, US
44.226.133.129|/Lana:1.0.0.1/|60001||||||
45.132.247.73|/Lana:1.0.0.1/|60001||||||
46.101.235.143|/Lana:1.0.0.1/|60001||||||
46.123.244.176|/Lana:1.0.0.1/|60001|21283|46.122.0.0/15|SI|ripencc|2010-05-28|A1SI-AS A1 Slovenija, SI
46.123.245.10|/Lana:1.0.0.1/|60001|21283|46.122.0.0/15|SI|ripencc|2010-05-28|A1SI-AS A1 Slovenija, SI
46.123.247.20|/Lana:1.0.0.1/|60001|21283|46.122.0.0/15|SI|ripencc|2010-05-28|A1SI-AS A1 Slovenija, SI
46.123.249.124|/Lana:1.0.0.1/|60001|21283|46.122.0.0/15|SI|ripencc|2010-05-28|A1SI-AS A1 Slovenija, SI
46.123.251.108|/Lana:1.0.0.1/|60001|21283|46.122.0.0/15|SI|ripencc|2010-05-28|A1SI-AS A1 Slovenija, SI
5.227.24.237|/Lana:1.0.0.1/|60001|8580|5.227.24.0/22|RU|ripencc|2012-09-07|SANDY MTS Nizhniy Novgorod, Russia, RU
51.38.57.53|/Lana:1.0.0.1/|60001||||||
62.171.190.193|/Lana:1.0.0.1/|60001||||||
62.238.178.129|/Lana:1.0.0.1/|60001||||||
66.55.78.57|/Lana:1.0.0.1/|60001||||||
71.205.83.216|/Lana:1.0.0.1/|60001||||||
72.224.195.138|/Lana:1.0.0.1/|60001||||||
74.136.37.85|/Lana:1.0.0.1/|60001||||||
77.38.50.61|/Lana:1.0.0.1/|60001||||||
79.184.232.184|/Lana:1.0.0.1/|60001||||||
83.166.112.117|/Lana:1.0.0.1/|60001||||||
84.162.170.179|/Lana:1.0.0.1/|60001||||||
85.113.216.124|/Lana:1.0.0.1/|60001||||||
85.173.133.220|/Lana:1.0.0.1/|60001||||||
86.9.173.126|/Lana:1.0.0.1/|60001||||||
87.123.245.110|/Lana:1.0.0.1/|60001||||||
88.198.62.49|/Lana:1.0.0.1/|60001||||||
89.142.125.41|/Lana:1.0.0.1/|60001||||||
89.142.64.85|/Lana:1.0.0.1/|60001||||||
89.212.11.158|/Lana:1.0.0.1/|60001||||||
89.64.120.69|/Lana:1.0.0.1/|60001||||||
89.71.156.196|/Lana:1.0.0.1/|60001||||||
90.14.195.53|/Lana:1.0.0.1/|60001||||||
91.206.16.214|/Lana:1.0.0.1/|60001||||||
93.103.20.240|/Lana:1.0.0.1/|60001||||||
94.198.41.108|/Lana:1.0.0.1/|60001||||||
95.217.77.209|/Lana:1.0.0.1/|60001||||||
99.148.47.138|/Lana:1.0.0.1/|60001||||||
