# https://chainz.cryptoid.info/ and whois results
# Lanacoin
IP Address|Subver|Version|ASN|BGP Prefix|CC|Registry|Allocated|AS Name
108.12.220.232|/Lana:1.0.0.1/|60001|701|108.12.192.0/18|US|arin|2009-06-05|UUNET, US
109.182.11.220|/Lana:1.0.0.1/|60001|5603|109.182.0.0/17|SI|ripencc|2009-09-25|SIOL-NET Telekom Slovenije d.d., SI
109.252.66.11|/Lana:1.0.0.1/|60001||||||
13.51.171.2|/Lana:1.0.0.1/|60001|16509|13.51.0.0/16|US|arin|2020-08-05|AMAZON-02, US
142.202.79.16|/Lana:1.0.0.1/|60001|46292|142.202.79.0/24|US|arin|2019-12-30|MOJAVEWIFI-COM-CA-1, US
146.212.125.31|/Lana:1.0.0.1/|60001||||||
155.93.227.23|/Lana:1.0.0.1/|60001|37680|155.93.224.0/20|ZA|afrinic|2016-02-04|COOL-IDEAS, ZA
157.90.181.171|/Lana:1.0.0.1/|60001||||||
159.65.206.24|/Lana:1.0.0.1/|60001|14061|159.65.192.0/20|US|arin|2017-10-24|DIGITALOCEAN-ASN, US
169.159.156.4|/Lana:1.0.0.1/|60001|328471|169.159.128.0/19|ZA|afrinic|2016-01-13|Hero-Telecoms, ZA
176.123.218.228|/Lana:1.0.0.1/|60001|59584|176.123.216.0/22|RU|ripencc|2012-07-31|INDIKOM-AS, RU
176.9.5.42|/Lana:1.0.0.1/|60001|24940|176.9.0.0/16|DE|ripencc|2011-05-17|HETZNER-AS, DE
185.82.202.162|/Lana:1.0.0.1/|60001|60117|185.82.202.0/24|AE|ripencc|2014-12-31|HS, AE
185.94.188.254|/Lana:1.0.0.1/|60001|9009|185.94.188.0/24|GB|ripencc|2015-04-07|M247, GB
189.29.170.154|/Lana:1.0.0.1/|60001||||||
193.164.140.162|/Lana:1.0.0.1/|60001|41427|193.164.140.0/24|SI|ripencc|2006-08-18|MARC-NET_AS, SI
193.77.158.82|/Lana:1.0.0.1/|60001||||||
194.150.97.27|/Lana:1.0.0.1/|60001|31242|194.150.96.0/22|PL|ripencc|2004-06-01|TKPSA-AS, PL
2.126.56.221|/Lana:1.0.0.1/|60001|5607|2.120.0.0/13|GB|ripencc|2010-04-14|BSKYB-BROADBAND-AS, GB
216.209.206.4|/Lana:1.0.0.1/|60001|15321|216.209.206.0/24|CA|arin|1999-03-12|GROUPE-MASKATEL-LP, CA
24.132.202.61|/Lana:1.0.0.1/|60001|33915|24.132.128.0/17|NL|ripencc|2000-01-17|TNF-AS, NL
31.15.164.16|/Lana:1.0.0.1/|60001|3212|31.15.128.0/17|SI|ripencc|2011-04-20|TELEMACH Broadband Access & Carrier Services, SI
37.24.189.124|/Lana:1.0.0.1/|60001|3209|37.24.128.0/17|DE|ripencc|2011-12-22|VODANET International IP-Backbone of Vodafone, DE
44.226.133.129|/Lana:1.0.0.1/|60001||||||
45.132.247.73|/Lana:1.0.0.1/|60001||||||
46.101.235.143|/Lana:1.0.0.1/|60001|14061|46.101.128.0/17|US|ripencc|2010-06-24|DIGITALOCEAN-ASN, US
5.227.14.116|/Lana:1.0.0.1/|60001|8580|5.227.0.0/17|RU|ripencc|2012-09-07|SANDY MTS Nizhniy Novgorod, Russia, RU
5.9.145.235|/Lana:1.0.0.1/|60001|24940|5.9.0.0/16|DE|ripencc|2012-04-25|HETZNER-AS, DE
50.208.151.117|/Lana:1.0.0.1/|60001|7922|50.128.0.0/9|US|arin|2010-10-21|COMCAST-7922, US
51.210.180.98|/Lana:1.0.0.1/|60001||||||
51.38.57.53|/Lana:1.0.0.1/|60001||||||
51.68.204.201|/Lana:1.0.0.1/|60001||||||
62.171.190.193|/Lana:1.0.0.1/|60001|51167|62.171.190.0/23|DE|ripencc|2000-08-18|CONTABO, DE
62.238.178.129|/Lana:1.0.0.1/|60001|15542|62.238.0.0/16|NL|ripencc|2000-11-02|ZEELANDNET DELTA Fiber Nederland, NL
66.55.78.57|/Lana:1.0.0.1/|60001||||||
71.205.83.216|/Lana:1.0.0.1/|60001||||||
74.136.37.85|/Lana:1.0.0.1/|60001|10796|74.128.0.0/12|US|arin|2006-04-07|TWC-10796-MIDWEST, US
76.67.53.223|/Lana:1.0.0.1/|60001|577|76.67.0.0/16|CA|arin|2006-12-04|BACOM, CA
77.38.50.61|/Lana:1.0.0.1/|60001|3212|77.38.0.0/17|SI|ripencc|2007-03-22|TELEMACH Broadband Access & Carrier Services, SI
80.101.10.20|/Lana:1.0.0.1/|60001|3265|80.100.0.0/15|NL|ripencc|2001-07-16|XS4ALL-NL Amsterdam, NL
81.93.71.42|/Lana:1.0.0.1/|60001|25144|81.93.64.0/19|BA|ripencc|2002-08-07|TELEKOM-SRPSKE-AS Kralja Petra I Karadjordjevica 61a, BA
82.132.237.46|/Lana:1.0.0.1/|60001|35228|82.132.236.0/22|GB|ripencc|2003-08-14|O2BROADBAND, GB
83.166.112.117|/Lana:1.0.0.1/|60001|51009|83.166.96.0/19|RU|ripencc|2010-05-12|NICOS-MSK Nicos Autonomous System, RU
83.31.11.213|/Lana:1.0.0.1/|60001|5617|83.24.0.0/13|PL|ripencc|2003-12-03|TPNET, PL
84.162.162.133|/Lana:1.0.0.1/|60001|3320|84.128.0.0/10|DE|ripencc|2004-03-10|DTAG Internet service provider operations, DE
84.162.170.73|/Lana:1.0.0.1/|60001|3320|84.128.0.0/10|DE|ripencc|2004-03-10|DTAG Internet service provider operations, DE
84.74.58.189|/Lana:1.0.0.1/|60001|6830|84.74.0.0/15|CH|ripencc|2004-04-02|LIBERTYGLOBAL Liberty Global formerly UPC Broadband Holding, aka AORTA, NL
86.9.173.126|/Lana:1.0.0.1/|60001|5089|86.9.0.0/16|GB|ripencc|2005-03-29|NTL, GB
88.198.62.49|/Lana:1.0.0.1/|60001|24940|88.198.0.0/16|DE|ripencc|2005-12-27|HETZNER-AS, DE
88.204.18.3|/Lana:1.0.0.1/|60001||||||
89.142.118.109|/Lana:1.0.0.1/|60001|5603|89.142.64.0/18|SI|ripencc|2006-03-03|SIOL-NET Telekom Slovenije d.d., SI
89.142.71.234|/Lana:1.0.0.1/|60001||||||
89.212.11.158|/Lana:1.0.0.1/|60001|34779|89.212.0.0/18|SI|ripencc|2006-05-03|T-2-AS AS set propagated by T-2 d.o.o., SI
89.71.156.196|/Lana:1.0.0.1/|60001|6830|89.64.0.0/13|PL|ripencc|2006-02-22|LIBERTYGLOBAL Liberty Global formerly UPC Broadband Holding, aka AORTA, NL
90.200.103.123|/Lana:1.0.0.1/|60001|5607|90.192.0.0/11|GB|ripencc|2006-05-31|BSKYB-BROADBAND-AS, GB
90.200.240.216|/Lana:1.0.0.1/|60001|5607|90.192.0.0/11|GB|ripencc|2006-05-31|BSKYB-BROADBAND-AS, GB
93.103.146.102|/Lana:1.0.0.1/|60001|34779|93.103.128.0/19|SI|ripencc|2008-03-14|T-2-AS AS set propagated by T-2 d.o.o., SI
93.103.20.240|/Lana:1.0.0.1/|60001|34779|93.103.0.0/19|SI|ripencc|2008-03-14|T-2-AS AS set propagated by T-2 d.o.o., SI
94.168.72.242|/Lana:1.0.0.1/|60001|33915|94.168.64.0/18|NL|ripencc|2008-08-28|TNF-AS, NL
94.51.165.182|/Lana:1.0.0.1/|60001|12389|94.51.160.0/20|RU|ripencc|2008-05-29|ROSTELECOM-AS, RU
95.217.77.209|/Lana:1.0.0.1/|60001||||||
95.90.198.115|/Lana:1.0.0.1/|60001|3209|95.88.0.0/14|DE|ripencc|2008-12-15|VODANET International IP-Backbone of Vodafone, DE
97.73.244.184|/Lana:1.0.0.1/|60001|6621|97.73.244.0/22|US|arin|2007-08-03|HNS-DIRECPC, US
99.148.47.138|/Lana:1.0.0.1/|60001||||||
