# https://chainz.cryptoid.info/ and whois results
# Lanacoin
IP Address|Subver|Version|ASN|BGP Prefix|CC|Registry|Allocated|AS Name
103.137.12.30|/Lana:1.0.0.1/|60001|137409|103.137.12.0/24|AU|apnic|2019-03-19|GSLNETWORKS-AS-AP GSL Networks Pty LTD, AU
109.116.20.105|/Lana:1.0.0.1/|60001||||||
109.182.12.46|/Lana:1.0.0.1/|60001|5603|109.182.0.0/17|SI|ripencc|2009-09-25|SIOL-NET Telekom Slovenije d.d., SI
109.212.92.166|/Lana:1.0.0.1/|60001||||||
109.252.66.11|/Lana:1.0.0.1/|60001||||||
117.20.70.57|/Lana:1.0.0.1/|60001|4764|117.20.70.0/24|AU|apnic|2007-06-18|WIDEBAND-AS-AP Aussie Broadband, AU
142.202.79.61|/Lana:1.0.0.1/|60001|46292|142.202.79.0/24|US|arin|2019-12-30|MOJAVEWIFI-COM-CA-1, US
146.212.125.31|/Lana:1.0.0.1/|60001||||||
159.65.206.24|/Lana:1.0.0.1/|60001|14061|159.65.192.0/20|US|arin|2017-10-24|DIGITALOCEAN-ASN, US
174.58.101.102|/Lana:1.0.0.1/|60001|7922|174.48.0.0/12|US|arin|2008-11-18|COMCAST-7922, US
174.94.41.47|/Lana:1.0.0.1/|60001||||||
176.123.218.228|/Lana:1.0.0.1/|60001|59584|176.123.216.0/22|RU|ripencc|2012-07-31|INDIKOM-AS, RU
182.3.5.79|/Lana:1.0.0.1/|60001|23693|182.3.0.0/19|ID|apnic|2010-01-29|TELKOMSEL-ASN-ID PT. Telekomunikasi Selular, ID
185.82.202.162|/Lana:1.0.0.1/|60001|60117|185.82.202.0/24|AE|ripencc|2014-12-31|HS, AE
189.29.170.154|/Lana:1.0.0.1/|60001|28573|189.29.128.0/18|BR|lacnic|2007-04-02|CLARO S.A., BR
192.222.139.154|/Lana:1.0.0.1/|60001||||||
193.164.140.162|/Lana:1.0.0.1/|60001|41427|193.164.140.0/24|SI|ripencc|2006-08-18|MARC-NET_AS, SI
193.77.158.82|/Lana:1.0.0.1/|60001|5603|193.77.128.0/18|SI|ripencc|1993-09-01|SIOL-NET Telekom Slovenije d.d., SI
213.49.198.46|/Lana:1.0.0.1/|60001|5432|213.49.0.0/16|BE|ripencc|1999-11-19|PROXIMUS-ISP-AS, BE
24.132.202.61|/Lana:1.0.0.1/|60001|33915|24.132.128.0/17|NL|ripencc|2000-01-17|TNF-AS, NL
24.50.85.229|/Lana:1.0.0.1/|60001|11290|24.50.64.0/18|CA|arin|2010-05-04|CC-3272, CA
24.93.109.9|/Lana:1.0.0.1/|60001|10796|24.93.96.0/19|US|arin|1997-05-02|TWC-10796-MIDWEST, US
31.15.164.16|/Lana:1.0.0.1/|60001|3212|31.15.128.0/17|SI|ripencc|2011-04-20|TELEMACH Broadband Access & Carrier Services, SI
37.24.189.124|/Lana:1.0.0.1/|60001|3209|37.24.128.0/17|DE|ripencc|2011-12-22|VODANET International IP-Backbone of Vodafone, DE
45.132.247.73|/Lana:1.0.0.1/|60001||||||
45.27.17.91|/Lana:1.0.0.1/|60001|7018|45.16.0.0/12|US|arin|2014-12-11|ATT-INTERNET4, US
46.101.235.143|/Lana:1.0.0.1/|60001||||||
5.227.30.22|/Lana:1.0.0.1/|60001|8580|5.227.24.0/21|RU|ripencc|2012-09-07|SANDY MTS Nizhniy Novgorod, Russia, RU
62.171.190.193|/Lana:1.0.0.1/|60001|51167|62.171.190.0/23|DE|ripencc|2000-08-18|CONTABO, DE
62.238.178.129|/Lana:1.0.0.1/|60001|15542|62.238.0.0/16|NL|ripencc|2000-11-02|ZEELANDNET DELTA Fiber Nederland, NL
66.55.78.57|/Lana:1.0.0.1/|60001|8100|66.55.78.0/24|US|arin|2009-10-08|ASN-QUADRANET-GLOBAL, US
71.205.83.216|/Lana:1.0.0.1/|60001||||||
72.224.195.138|/Lana:1.0.0.1/|60001|11351|72.224.0.0/16|US|arin|2005-07-21|TWC-11351-NORTHEAST, US
74.136.37.85|/Lana:1.0.0.1/|60001|10796|74.128.0.0/12|US|arin|2006-04-07|TWC-10796-MIDWEST, US
77.38.50.61|/Lana:1.0.0.1/|60001|3212|77.38.0.0/17|SI|ripencc|2007-03-22|TELEMACH Broadband Access & Carrier Services, SI
80.101.10.20|/Lana:1.0.0.1/|60001|3265|80.100.0.0/15|NL|ripencc|2001-07-16|XS4ALL-NL Amsterdam, NL
83.166.112.117|/Lana:1.0.0.1/|60001|51009|83.166.96.0/19|RU|ripencc|2010-05-12|NICOS-MSK Nicos Autonomous System, RU
83.31.148.194|/Lana:1.0.0.1/|60001|5617|83.24.0.0/13|PL|ripencc|2003-12-03|TPNET, PL
83.31.236.38|/Lana:1.0.0.1/|60001|5617|83.24.0.0/13|PL|ripencc|2003-12-03|TPNET, PL
83.56.190.156|/Lana:1.0.0.1/|60001|3352|83.56.0.0/16|ES|ripencc|2004-10-07|TELEFONICA_DE_ESPANA, ES
84.162.168.95|/Lana:1.0.0.1/|60001|3320|84.128.0.0/10|DE|ripencc|2004-03-10|DTAG Internet service provider operations, DE
84.17.46.174|/Lana:1.0.0.1/|60001|60068|84.17.46.0/23|GB|ripencc|2004-07-23|CDN77 ^_^, GB
84.241.199.210|/Lana:1.0.0.1/|60001|31615|84.241.192.0/18|NL|ripencc|2004-06-23|TMO-NL-AS, NL
85.113.216.124|/Lana:1.0.0.1/|60001||||||
85.173.126.47|/Lana:1.0.0.1/|60001|12389|85.173.126.0/24|RU|ripencc|2004-12-22|ROSTELECOM-AS, RU
85.173.126.73|/Lana:1.0.0.1/|60001|12389|85.173.126.0/24|RU|ripencc|2004-12-22|ROSTELECOM-AS, RU
86.9.173.126|/Lana:1.0.0.1/|60001|5089|86.9.0.0/16|GB|ripencc|2005-03-29|NTL, GB
87.123.245.125|/Lana:1.0.0.1/|60001|8881|87.123.240.0/21|DE|ripencc|2005-07-27|VERSATEL, DE
87.123.245.149|/Lana:1.0.0.1/|60001|8881|87.123.240.0/21|DE|ripencc|2005-07-27|VERSATEL, DE
87.209.136.7|/Lana:1.0.0.1/|60001|50266|87.209.0.0/16|NL|ripencc|2005-06-02|TMOBILE-THUIS, NL
88.198.62.49|/Lana:1.0.0.1/|60001|24940|88.198.0.0/16|DE|ripencc|2005-12-27|HETZNER-AS, DE
89.142.124.21|/Lana:1.0.0.1/|60001|5603|89.142.64.0/18|SI|ripencc|2006-03-03|SIOL-NET Telekom Slovenije d.d., SI
89.142.72.97|/Lana:1.0.0.1/|60001||||||
89.212.11.158|/Lana:1.0.0.1/|60001|34779|89.212.0.0/18|SI|ripencc|2006-05-03|T-2-AS AS set propagated by T-2 d.o.o., SI
89.64.121.177|/Lana:1.0.0.1/|60001|6830|89.64.0.0/13|PL|ripencc|2006-02-22|LIBERTYGLOBAL Liberty Global formerly UPC Broadband Holding, aka AORTA, NL
89.71.156.196|/Lana:1.0.0.1/|60001|6830|89.64.0.0/13|PL|ripencc|2006-02-22|LIBERTYGLOBAL Liberty Global formerly UPC Broadband Holding, aka AORTA, NL
91.206.16.214|/Lana:1.0.0.1/|60001||||||
93.103.20.240|/Lana:1.0.0.1/|60001|34779|93.103.0.0/19|SI|ripencc|2008-03-14|T-2-AS AS set propagated by T-2 d.o.o., SI
95.139.177.167|/Lana:1.0.0.1/|60001|12389|95.139.176.0/20|RU|ripencc|2009-03-25|ROSTELECOM-AS, RU
95.217.77.209|/Lana:1.0.0.1/|60001||||||
97.73.244.191|/Lana:1.0.0.1/|60001|6621|97.73.244.0/22|US|arin|2007-08-03|HNS-DIRECPC, US
99.148.47.138|/Lana:1.0.0.1/|60001||||||
