# https://chainz.cryptoid.info/ and whois results
# LUXCoin
IP Address|Subver|Version|ASN|BGP Prefix|CC|Registry|Allocated|AS Name
103.111.179.12|/Luxcore:5.5.1/|70102||||||
103.137.15.21|/Luxcore:5.5.1/|70102||||||
104.221.117.219|/Luxcore:5.5.1/|70102||||||
104.52.169.192|/Luxcore:5.5.0/|70102|7018|104.48.0.0/12|US|arin|2014-05-06|ATT-INTERNET4, US
106.12.104.122|???|0||||||
108.17.53.39|/Luxcore:5.5.1/|70102||||||
109.254.254.170|/Luxcore:5.5.1/|70102||||||
122.216.24.103|/Luxcore:5.5.1/|70102||||||
123.193.212.237|/Luxcore:5.5.1/|70102||||||
131.93.108.139|/Luxcore:5.5.1/|70102||||||
134.76.38.72|/Luxcore:5.5.1/|70102||||||
136.244.103.146|/Luxcore:5.5.0/|70102|20473|136.244.96.0/20|US|arin|2019-04-08|AS-CHOOPA, US
140.82.25.196|/Luxcore:5.5.0/|70102|20473|140.82.24.0/21|US|arin|2018-03-15|AS-CHOOPA, US
141.101.25.131|/Luxcore:5.5.0/|70102|31272|141.101.0.0/19|UA|ripencc|2011-06-23|WILDPARK-AS ISP WildPark, Ukraine, Nikolaev, UA
141.101.27.190|/Luxcore:5.5.0/|70102|31272|141.101.0.0/19|UA|ripencc|2011-06-23|WILDPARK-AS ISP WildPark, Ukraine, Nikolaev, UA
141.95.55.97|/Luxcore:5.5.1/|70102||||||
144.202.49.240|/Luxcore:5.5.0/|70102|20473|144.202.48.0/20|US|arin|2018-02-05|AS-CHOOPA, US
144.217.81.95|/Luxcore:5.5.0/|70102|16276|144.217.0.0/16|CA|arin|2016-09-07|OVH, FR
144.91.116.146|/Luxcore:5.5.1/|70102||||||
144.91.93.149|???|0||||||
147.135.86.75|/Luxcore:5.5.0/|70102|16276|147.135.0.0/17|US|arin|2017-03-22|OVH, FR
149.233.55.22|/Luxcore:5.5.1/|70102||||||
155.138.196.176|/Luxcore:5.5.0/|70102|20473|155.138.192.0/19|US|arin|2018-12-05|AS-CHOOPA, US
157.90.99.78|/Luxcore:5.5.0/|70102|24940|157.90.0.0/16|DE|ripencc|1996-12-16|HETZNER-AS, DE
158.58.221.240|/Luxcore:5.5.1/|70102||||||
158.69.112.9|/Luxcore:5.5.0/|70102|16276|158.69.0.0/16|CA|arin|2015-06-15|OVH, FR
162.55.0.83|/Luxcore:5.5.0/|70102||||||
173.212.250.232|/Luxcore:5.5.0/|70102|51167|173.212.248.0/22|DE|ripencc|2009-10-26|CONTABO, DE
173.249.20.167|/Luxcore:5.5.1/|70102||||||
173.249.20.194|/Luxcore:5.5.1/|70102||||||
176.222.223.247|/Luxcore:5.5.1/|70102||||||
177.142.55.10|/Luxcore:5.5.1/|70102||||||
178.32.41.81|???|0||||||
178.79.111.207|/Luxcore:5.5.0/|70102|3212|178.79.64.0/18|SI|ripencc|2010-05-07|TELEMACH Broadband Access & Carrier Services, SI
180.74.66.99|/Luxcore:5.5.1/|70102||||||
182.133.249.237|/Luxcore:5.5.1/|70102||||||
182.61.45.203|???|0||||||
185.209.228.107|/Luxcore:5.5.1/|70102||||||
188.116.92.184|/Luxcore:5.5.1/|70102||||||
188.32.136.195|/Luxcore:5.5.1/|70102||||||
193.106.241.196|/Luxcore:5.5.1/|70102||||||
193.239.230.102|/Luxcore:5.5.1/|70102||||||
193.239.230.105|/Luxcore:5.5.1/|70102||||||
193.239.230.112|/Luxcore:5.5.1/|70102||||||
193.239.230.124|/Luxcore:5.5.1/|70102||||||
193.47.33.43|/Luxcore:5.5.0/|70102|208626|193.47.33.0/24|RU|ripencc|2018-10-23|SERV-TECH, RU
194.207.168.248|/Luxcore:5.5.1/|70102||||||
195.13.217.156|/Luxcore:5.5.1/|70102||||||
195.154.114.18|/Luxcore:5.5.0/|70102|12876|195.154.0.0/16|FR|ripencc|1996-08-27|Online SAS, FR
195.201.113.5|/Luxcore:5.5.0/|70102||||||
2.57.169.209|/Luxcore:5.5.1/|70102||||||
2.57.169.44|/Luxcore:5.5.1/|70102||||||
202.238.241.141|/Luxcore:5.5.1/|70102||||||
206.189.201.139|/Luxcore:5.5.0/|70102||||||
212.14.100.50|/Luxcore:5.5.1/|70102||||||
217.25.231.95|/Luxcore:5.5.1/|70102||||||
217.88.11.63|/Luxcore:5.5.1/|70102||||||
24.159.181.207|/Luxcore:5.5.0/|70102||||||
31.10.151.31|/Luxcore:5.5.1/|70102||||||
31.187.249.28|/Luxcore:5.5.1/|70102||||||
37.24.131.128|/Luxcore:5.5.0/|70102||||||
37.57.218.61|/Luxcore:5.5.1/|70102||||||
37.9.149.140|/Luxcore:5.5.1/|70102||||||
37.9.152.113|/Luxcore:5.5.1/|70102||||||
38.70.11.7|/Luxcore:5.5.1/|70102||||||
45.32.220.122|/Luxcore:5.5.0/|70102||||||
45.33.122.124|/Luxcore:5.5.0/|70102||||||
45.63.12.196|/Luxcore:5.5.0/|70102||||||
45.76.15.82|/Luxcore:5.5.1/|70102||||||
45.76.229.186|/Luxcore:5.5.0/|70102||||||
45.77.104.201|/Luxcore:5.5.0/|70102||||||
45.77.152.176|/Luxcore:5.5.0/|70102||||||
45.77.220.37|/Luxcore:5.5.0/|70102||||||
45.77.253.158|/Luxcore:5.5.0/|70102||||||
46.23.35.70|/Luxcore:5.5.1/|70102||||||
47.74.3.92|/Luxcore:5.5.0/|70102||||||
49.48.227.104|/Luxcore:5.5.1/|70102||||||
5.9.88.219|/Luxcore:5.5.0/|70102||||||
50.35.125.209|/Luxcore:5.5.0/|70102||||||
51.222.28.76|/Luxcore:5.5.1/|70102||||||
51.75.129.200|/Luxcore:5.5.0/|70102||||||
51.81.102.199|/Luxcore:5.5.1/|70102||||||
51.81.102.213|/Luxcore:5.5.1/|70102||||||
51.83.186.57|/Luxcore:5.5.1/|70102||||||
60.225.189.128|/Luxcore:5.5.1/|70102||||||
62.148.157.190|/Luxcore:5.5.1/|70102||||||
62.171.132.112|???|0||||||
62.210.25.30|???|0||||||
65.21.203.156|/Luxcore:5.5.1/|70102||||||
65.21.89.182|/Luxcore:5.5.0/|70102||||||
66.42.95.159|/Luxcore:5.5.1/|70102||||||
70.34.203.41|/Luxcore:5.5.1/|70102||||||
71.59.166.33|/Luxcore:5.5.1/|70102||||||
72.239.252.119|/Luxcore:5.5.0/|70102||||||
72.68.67.27|/Luxcore:5.5.1/|70102||||||
77.20.84.192|/Luxcore:5.5.0/|70102||||||
77.236.80.4|/Luxcore:5.5.1/|70102||||||
77.78.22.179|/Luxcore:5.5.1/|70102||||||
77.78.23.237|/Luxcore:5.5.0/|70102||||||
80.146.195.200|/Luxcore:5.5.0/|70102||||||
80.232.243.24|/Luxcore:5.5.1/|70102||||||
80.80.194.2|/Luxcore:5.5.1/|70102||||||
81.10.148.203|/Luxcore:5.5.1/|70102||||||
81.240.67.217|/Luxcore:5.5.0/|70102||||||
81.3.13.182|/Luxcore:5.5.1/|70102||||||
81.3.13.187|/Luxcore:5.5.1/|70102|24679|81.3.0.0/18|DE|ripencc|2002-04-08|SSERV-AS, DE
84.187.55.16|/Luxcore:5.5.1/|70102|3320|84.128.0.0/10|DE|ripencc|2004-03-10|DTAG Internet service provider operations, DE
84.2.34.81|/Luxcore:5.5.0/|70102||||||
84.2.34.85|/Luxcore:5.5.0/|70102||||||
86.122.62.213|???|0||||||
86.124.203.152|???|0||||||
88.99.17.41|/Luxcore:5.5.1/|70102|24940|88.99.0.0/16|DE|ripencc|2005-08-03|HETZNER-AS, DE
90.150.253.126|/Luxcore:5.5.1/|70102|12389|90.150.240.0/20|RU|ripencc|2006-12-19|ROSTELECOM-AS, RU
91.192.142.185|/Luxcore:5.5.1/|70102|35322|91.192.140.0/22|RO|ripencc|2007-02-23|CARO-AS, RO
91.192.142.186|/Luxcore:5.5.1/|70102|35322|91.192.140.0/22|RO|ripencc|2007-02-23|CARO-AS, RO
91.192.142.187|/Luxcore:5.5.1/|70102|35322|91.192.140.0/22|RO|ripencc|2007-02-23|CARO-AS, RO
91.192.142.191|/Luxcore:5.5.1/|70102|35322|91.192.140.0/22|RO|ripencc|2007-02-23|CARO-AS, RO
91.192.142.206|/Luxcore:5.5.1/|70102|35322|91.192.140.0/22|RO|ripencc|2007-02-23|CARO-AS, RO
91.192.142.21|/Luxcore:5.5.1/|70102|35322|91.192.140.0/22|RO|ripencc|2007-02-23|CARO-AS, RO
91.192.142.232|/Luxcore:5.5.1/|70102|35322|91.192.140.0/22|RO|ripencc|2007-02-23|CARO-AS, RO
91.192.142.233|/Luxcore:5.5.1/|70102|35322|91.192.140.0/22|RO|ripencc|2007-02-23|CARO-AS, RO
91.192.142.234|/Luxcore:5.5.1/|70102|35322|91.192.140.0/22|RO|ripencc|2007-02-23|CARO-AS, RO
91.192.142.235|/Luxcore:5.5.0/|70102||||||
91.192.142.245|/Luxcore:5.5.1/|70102|35322|91.192.140.0/22|RO|ripencc|2007-02-23|CARO-AS, RO
91.192.142.249|/Luxcore:5.5.1/|70102|35322|91.192.140.0/22|RO|ripencc|2007-02-23|CARO-AS, RO
91.192.142.34|/Luxcore:5.5.1/|70102|35322|91.192.140.0/22|RO|ripencc|2007-02-23|CARO-AS, RO
91.207.102.12|/Luxcore:5.5.0/|70102||||||
93.100.91.127|???|0||||||
94.245.129.103|???|0||||||
94.25.176.9|/Luxcore:5.5.1/|70102|25159|94.25.176.0/20|RU|ripencc|2008-06-10|SONICDUO-AS, RU
95.105.64.33|/Luxcore:5.5.1/|70102|57128|95.105.64.0/22|RU|ripencc|2009-12-10|KGS-NET, RU
95.174.205.229|/Luxcore:5.5.0/|70102||||||
95.216.228.253|/Luxcore:5.5.0/|70102||||||
95.223.70.84|/Luxcore:5.5.1/|70102|3209|95.223.0.0/16|DE|ripencc|2009-03-24|VODANET International IP-Backbone of Vodafone, DE
98.251.15.200|/Luxcore:5.5.0/|70102||||||
98.253.143.140|/Luxcore:5.5.1/|70102||||||
