# https://chainz.cryptoid.info/ and whois results
# LUXCoin
IP Address|Subver|Version|ASN|BGP Prefix|CC|Registry|Allocated|AS Name
106.12.104.122|/Luxcore:5.3.3/|70101|38365|106.12.96.0/20|CN|apnic|2011-03-22|BAIDU Beijing Baidu Netcom Science and Technology Co., Ltd., CN
109.254.254.170|/Luxcore:5.5.1/|70102||||||
116.202.214.239|/Luxcore:5.5.1/|70102||||||
116.90.72.60|/Luxcore:5.5.1/|70102||||||
122.216.24.103|/Luxcore:5.5.1/|70102||||||
123.193.212.237|/Luxcore:5.5.1/|70102||||||
130.0.220.149|/Luxcore:5.5.1/|70102||||||
134.76.38.72|/Luxcore:5.5.1/|70102||||||
142.112.0.42|/Luxcore:5.5.1/|70102||||||
144.217.81.95|/Luxcore:5.5.0/|70102|16276|144.217.0.0/16|CA|arin|2016-09-07|OVH, FR
144.217.91.232|/Luxcore:5.3.3/|70101|16276|144.217.0.0/16|CA|arin|2016-09-07|OVH, FR
144.76.90.156|/Luxcore:5.5.1/|70102||||||
144.91.116.146|/Luxcore:5.5.1/|70102||||||
144.91.93.149|/Luxcore:5.3.3/|70101|51167|144.91.92.0/23|DE|ripencc|1990-11-20|CONTABO, DE
147.135.86.75|/Luxcore:5.5.0/|70102|16276|147.135.0.0/17|US|arin|2017-03-22|OVH, FR
151.80.43.136|/Luxcore:5.3.5/|70101|16276|151.80.0.0/16|IT|ripencc|1991-05-13|OVH, FR
158.58.221.240|/Luxcore:5.5.1/|70102||||||
158.69.112.9|/Luxcore:5.5.0/|70102|16276|158.69.0.0/16|CA|arin|2015-06-15|OVH, FR
173.212.250.232|/Luxcore:5.5.0/|70102|51167|173.212.248.0/22|DE|ripencc|2009-10-26|CONTABO, DE
173.249.20.167|/Luxcore:5.5.1/|70102||||||
173.249.20.194|/Luxcore:5.5.1/|70102||||||
173.249.20.4|/Luxcore:5.3.3/|70101|51167|173.249.20.0/23|DE|ripencc|2010-05-26|CONTABO, DE
178.32.41.81|/Luxcore:5.3.3/|70101|16276|178.32.0.0/15|FR|ripencc|2010-01-19|OVH, FR
178.79.111.207|/Luxcore:5.5.0/|70102|3212|178.79.64.0/18|SI|ripencc|2010-05-07|TELEMACH Broadband Access & Carrier Services, SI
182.61.45.203|/Luxcore:5.3.3/|70101|38365|182.61.32.0/19|CN|apnic|2010-02-25|BAIDU Beijing Baidu Netcom Science and Technology Co., Ltd., CN
184.146.57.48|/Luxcore:5.3.3/|70101||||||
185.189.115.30|/Luxcore:5.5.1/|70102||||||
188.116.92.184|/Luxcore:5.5.1/|70102||||||
194.34.133.91|/Luxcore:5.5.1/|70102||||||
194.34.133.92|/Luxcore:5.5.1/|70102||||||
195.13.217.156|/Luxcore:5.5.1/|70102||||||
206.189.201.139|/Luxcore:5.5.1/|70102||||||
210.186.196.106|/Luxcore:5.5.1/|70102||||||
213.111.126.10|/Luxcore:5.3.5/|70101|48683|213.111.64.0/18|UA|ripencc|2009-11-04|BI-LINK-AS, UA
217.25.231.95|/Luxcore:5.5.1/|70102||||||
222.108.215.194|/Luxcore:5.5.1/|70102||||||
37.252.93.164|/Luxcore:5.5.1/|70102||||||
43.227.255.124|/Luxcore:5.3.3/|70101||||||
45.77.220.37|/Luxcore:5.5.0/|70102|20473|45.77.216.0/21|US|arin|2015-04-24|AS-CHOOPA, US
45.77.253.158|/Luxcore:5.5.0/|70102|20473|45.77.240.0/20|US|arin|2015-04-24|AS-CHOOPA, US
46.33.252.174|/Luxcore:5.5.0/|70102|31272|46.33.224.0/19|UA|ripencc|2010-09-15|WILDPARK-AS ISP WildPark, Ukraine, Nikolaev, UA
46.65.62.210|/Luxcore:5.5.1/|70102||||||
49.48.231.47|/Luxcore:5.5.1/|70102||||||
49.48.251.135|/Luxcore:5.5.1/|70102||||||
5.9.88.219|/Luxcore:5.5.0/|70102|24940|5.9.0.0/16|DE|ripencc|2012-04-25|HETZNER-AS, DE
50.21.233.64|/Luxcore:5.5.1/|70102||||||
50.39.157.133|/Luxcore:5.5.1/|70102||||||
51.222.28.76|/Luxcore:5.5.1/|70102||||||
51.75.129.200|???|0|16276|51.75.0.0/16|FR|ripencc|1993-09-01|OVH, FR
51.81.102.213|/Luxcore:5.5.1/|70102||||||
62.171.132.112|/Luxcore:5.5.1/|70102||||||
65.21.203.156|/Luxcore:5.5.1/|70102||||||
71.19.252.127|/Luxcore:5.5.1/|70102||||||
71.59.166.33|/Luxcore:5.5.1/|70102||||||
72.179.39.13|/Luxcore:5.5.1/|70102||||||
72.228.179.146|/Luxcore:5.5.1/|70102||||||
72.239.252.119|/Luxcore:5.5.0/|70102|33363|72.238.0.0/15|US|arin|2005-04-21|BHN-33363, US
77.20.148.21|/Luxcore:5.5.0/|70102|3209|77.20.0.0/14|DE|ripencc|2008-04-08|VODANET International IP-Backbone of Vodafone, DE
77.244.65.123|/Luxcore:5.5.1/|70102||||||
77.78.22.179|/Luxcore:5.5.1/|70102||||||
77.78.23.237|/Luxcore:5.5.1/|70102||||||
78.107.248.122|/Luxcore:5.5.0/|70102|8402|78.106.0.0/15|RU|ripencc|2007-06-06|CORBINA-AS OJSC Vimpelcom, RU
80.232.243.24|/Luxcore:5.5.1/|70102||||||
81.10.148.203|/Luxcore:5.5.1/|70102|12605|81.10.128.0/17|AT|ripencc|2002-04-16|LIWEST-AT Linz, Austria, AT
82.78.232.60|/Luxcore:5.5.0/|70102|8708|82.76.0.0/14|RO|ripencc|2003-07-14|RCS-RDS 73-75 Dr. Staicovici, RO
84.115.211.68|/Luxcore:5.5.1/|70102|8412|84.114.0.0/15|AT|ripencc|2004-04-07|TMA Magenta Telekom, AT
84.2.34.85|/Luxcore:5.5.0/|70102||||||
86.124.203.152|???|0|8708|86.120.0.0/13|RO|ripencc|2005-03-16|RCS-RDS 73-75 Dr. Staicovici, RO
87.184.115.87|/Luxcore:5.5.1/|70102|3320|87.128.0.0/10|DE|ripencc|2006-03-30|DTAG Internet service provider operations, DE
87.184.122.78|/Luxcore:5.5.1/|70102|3320|87.128.0.0/10|DE|ripencc|2006-03-30|DTAG Internet service provider operations, DE
90.151.90.183|/Luxcore:5.5.1/|70102|12389|90.151.80.0/20|RU|ripencc|2006-12-19|ROSTELECOM-AS, RU
91.192.142.191|/Luxcore:5.5.1/|70102|35322|91.192.140.0/22|RO|ripencc|2007-02-23|CARO-AS, RO
91.193.179.101|/Luxcore:5.5.1/|70102|16345|91.193.176.0/22|RU|ripencc|2007-04-24|BEE-AS Russia, RU
91.215.251.117|/Luxcore:5.5.0/|70102|35816|91.215.248.0/22|UA|ripencc|2009-09-02|SEVSTAR Sevastopol, Russia, RU
93.100.91.127|/Luxcore:5.3.5/|70101|35807|93.100.0.0/17|RU|ripencc|2008-02-28|SKYNET-SPB-AS, RU
94.245.128.99|/Luxcore:5.5.1/|70102|12389|94.245.128.0/23|RU|ripencc|2008-11-07|ROSTELECOM-AS, RU
94.25.176.104|/Luxcore:5.5.1/|70102|25159|94.25.176.0/20|RU|ripencc|2008-06-10|SONICDUO-AS, RU
95.165.24.200|/Luxcore:5.5.1/|70102|25513|95.165.0.0/16|RU|ripencc|2009-01-27|ASN-MGTS-USPD, RU
95.174.205.229|/Luxcore:5.5.0/|70102|31036|95.174.192.0/19|RU|ripencc|2009-03-25|NEWTELESYSTEMS, RU
95.216.228.253|/Luxcore:5.5.0/|70102||||||
95.223.70.84|/Luxcore:5.5.1/|70102|3209|95.223.0.0/16|DE|ripencc|2009-03-24|VODANET International IP-Backbone of Vodafone, DE
98.25.222.163|/Luxcore:5.5.0/|70102|11426|98.24.0.0/15|US|arin|2007-11-02|TWC-11426-CAROLINAS, US
