# https://chainz.cryptoid.info/ and whois results
# LUXCoin
IP Address|Subver|Version|ASN|BGP Prefix|CC|Registry|Allocated|AS Name
104.221.117.219|/Luxcore:5.5.1/|70102||||||
106.12.104.122|/Luxcore:5.3.3/|70101||||||
108.17.53.39|/Luxcore:5.5.1/|70102||||||
109.254.254.170|/Luxcore:5.5.1/|70102|20590|109.254.224.0/19|RU|ripencc|2009-12-10|DEC-AS, UA
116.202.214.239|/Luxcore:5.5.1/|70102|24940|116.202.0.0/16|DE|ripencc|2011-01-17|HETZNER-AS, DE
116.90.72.60|/Luxcore:5.5.1/|70102|137409|116.90.72.0/24|AU|apnic|2008-08-25|GSLNETWORKS-AS-AP GSL Networks Pty LTD, AU
122.216.24.103|/Luxcore:5.5.1/|70102||||||
123.193.212.237|/Luxcore:5.5.1/|70102|9924|123.193.192.0/19|TW|apnic|2006-12-22|TFN-TW Taiwan Fixed Network, Telco and Network Service Provider., TW
130.0.220.149|/Luxcore:5.5.1/|70102|12714|130.0.216.0/21|RU|ripencc|2011-10-18|TI-AS Moscow, Russia, RU
134.76.38.72|/Luxcore:5.5.1/|70102|680|134.76.0.0/16|DE|ripencc|1989-05-10|DFN Verein zur Foerderung eines Deutschen Forschungsnetzes e.V., DE
142.112.0.42|/Luxcore:5.5.1/|70102||||||
144.217.81.95|/Luxcore:5.5.0/|70102|16276|144.217.0.0/16|CA|arin|2016-09-07|OVH, FR
144.217.91.232|/Luxcore:5.3.3/|70101||||||
144.76.172.181|/Luxcore:5.5.1/|70102||||||
144.76.90.156|/Luxcore:5.5.1/|70102|24940|144.76.0.0/16|DE|ripencc|1990-11-16|HETZNER-AS, DE
144.91.93.149|/Luxcore:5.3.3/|70101||||||
147.135.86.75|/Luxcore:5.5.0/|70102|16276|147.135.0.0/17|US|arin|2017-03-22|OVH, FR
151.80.43.136|/Luxcore:5.3.5/|70101||||||
154.21.21.38|/Luxcore:5.5.1/|70102|174|154.21.0.0/16|US|arin|1992-02-05|COGENT-174, US
158.58.221.240|/Luxcore:5.5.1/|70102|43205|158.58.192.0/18|BG|ripencc|2011-11-10|BULSATCOM-BG-AS Sofia, BG
158.69.112.9|/Luxcore:5.5.0/|70102|16276|158.69.0.0/16|CA|arin|2015-06-15|OVH, FR
162.193.105.173|/Luxcore:5.5.1/|70102|7018|162.192.0.0/12|US|arin|2013-03-01|ATT-INTERNET4, US
167.86.127.48|/Luxcore:5.5.1/|70102||||||
173.212.250.232|/Luxcore:5.5.0/|70102|51167|173.212.248.0/22|DE|ripencc|2009-10-26|CONTABO, DE
173.249.20.167|/Luxcore:5.5.1/|70102|51167|173.249.20.0/23|DE|ripencc|2010-05-26|CONTABO, DE
173.249.20.194|/Luxcore:5.5.1/|70102|51167|173.249.20.0/23|DE|ripencc|2010-05-26|CONTABO, DE
173.249.20.4|/Luxcore:5.3.3/|70101||||||
176.37.106.215|/Luxcore:5.5.1/|70102|39608|176.37.0.0/16|UA|ripencc|2011-05-20|LANETUA-AS, UA
178.32.41.81|/Luxcore:5.3.3/|70101||||||
178.79.111.207|/Luxcore:5.5.0/|70102|3212|178.79.64.0/18|SI|ripencc|2010-05-07|TELEMACH Broadband Access & Carrier Services, SI
182.61.45.203|/Luxcore:5.3.3/|70101||||||
184.146.57.48|/Luxcore:5.3.3/|70101||||||
188.116.92.184|/Luxcore:5.5.1/|70102|196822|188.116.64.0/18|CZ|ripencc|2009-06-04|SELECTSYSTEM-AS, CZ
193.47.33.43|/Luxcore:5.5.1/|70102|208626|193.47.33.0/24|RU|ripencc|2018-10-23|SERV-TECH, RU
195.13.217.154|/Luxcore:5.5.1/|70102|12578|195.13.128.0/17|LV|ripencc|1998-01-26|APOLLO-AS Latvia, LV
195.13.217.156|/Luxcore:5.5.1/|70102|12578|195.13.128.0/17|LV|ripencc|1998-01-26|APOLLO-AS Latvia, LV
196.244.192.56|/Luxcore:5.5.1/|70102|58065|196.244.192.0/24|SC|afrinic|2008-11-11|PACKETEXCHANGE, SE
206.189.201.139|/Luxcore:5.5.1/|70102|14061|206.189.192.0/20|US|arin|1995-11-15|DIGITALOCEAN-ASN, US
213.111.126.10|/Luxcore:5.3.5/|70101||||||
213.205.198.226|/Luxcore:5.5.1/|70102|12576|213.205.192.0/18|GB|ripencc|2002-11-07|EE Ltd, GB
217.247.112.8|/Luxcore:5.5.1/|70102|3320|217.224.0.0/11|DE|ripencc|2001-04-04|DTAG Internet service provider operations, DE
217.25.231.95|/Luxcore:5.5.1/|70102|6856|217.25.224.0/20|RU|ripencc|2006-05-24|IC-VORONEZH-AS Informsvyaz - Chernozemye, RU
31.163.32.184|/Luxcore:5.5.1/|70102|12389|31.163.32.0/19|RU|ripencc|2011-02-17|ROSTELECOM-AS, RU
37.120.213.174|/Luxcore:5.5.1/|70102|9009|37.120.213.0/24|RO|ripencc|2012-02-13|M247, GB
43.227.255.124|/Luxcore:5.3.3/|70101||||||
45.77.220.37|/Luxcore:5.5.0/|70102|20473|45.77.216.0/21|US|arin|2015-04-24|AS-CHOOPA, US
45.77.253.158|/Luxcore:5.5.0/|70102|20473|45.77.240.0/20|US|arin|2015-04-24|AS-CHOOPA, US
49.48.227.202|/Luxcore:5.5.1/|70102|45629|49.48.0.0/16|TH|apnic|2010-09-20|JASTEL-NETWORK-TH-AP JasTel Network International Gateway, TH
49.48.230.29|/Luxcore:5.5.1/|70102|45629|49.48.0.0/16|TH|apnic|2010-09-20|JASTEL-NETWORK-TH-AP JasTel Network International Gateway, TH
5.9.88.219|/Luxcore:5.5.0/|70102||||||
50.21.233.11|/Luxcore:5.5.1/|70102|852|50.21.233.0/24|CA|arin|2011-02-28|TELUS Communications, CA
51.222.28.76|/Luxcore:5.5.1/|70102|16276|51.222.0.0/16|CA|arin|2020-03-31|OVH, FR
51.75.129.200|/Luxcore:5.5.0/|70102||||||
51.81.102.213|/Luxcore:5.5.1/|70102|16276|51.81.0.0/17|US|arin|2019-03-11|OVH, FR
62.171.132.112|/Luxcore:5.5.1/|70102|51167|62.171.132.0/23|DE|ripencc|2000-08-18|CONTABO, DE
64.64.117.56|/Luxcore:5.5.1/|70102|396356|64.64.117.0/24|US|arin|2010-04-06|MAXIHOST, US
65.21.203.156|/Luxcore:5.5.1/|70102||||||
71.178.211.219|/Luxcore:5.5.1/|70102|701|71.178.0.0/16|US|arin|2005-06-01|UUNET, US
71.59.166.33|/Luxcore:5.5.1/|70102|7922|71.56.0.0/13|US|arin|2005-04-29|COMCAST-7922, US
72.179.39.13|/Luxcore:5.5.1/|70102|11427|72.176.0.0/13|US|arin|2005-11-21|TWC-11427-TEXAS, US
72.228.179.146|/Luxcore:5.5.1/|70102|11351|72.228.0.0/16|US|arin|2005-07-21|TWC-11351-NORTHEAST, US
72.68.67.27|/Luxcore:5.5.1/|70102|701|72.68.0.0/17|US|arin|2005-06-24|UUNET, US
77.20.148.21|/Luxcore:5.5.0/|70102||||||
77.78.22.179|/Luxcore:5.5.1/|70102|34569|77.78.0.0/18|BG|ripencc|2007-02-27|NETWORX-BG Online Direct, BG
77.78.23.237|/Luxcore:5.5.1/|70102|34569|77.78.0.0/18|BG|ripencc|2007-02-27|NETWORX-BG Online Direct, BG
78.229.128.150|/Luxcore:5.5.0/|70102||||||
80.232.243.24|/Luxcore:5.5.1/|70102|12578|80.232.128.0/17|LV|ripencc|2001-10-03|APOLLO-AS Latvia, LV
81.3.13.182|/Luxcore:5.5.1/|70102|24679|81.3.0.0/18|DE|ripencc|2002-04-08|SSERV-AS, DE
84.115.211.68|/Luxcore:5.5.1/|70102|8412|84.114.0.0/15|AT|ripencc|2004-04-07|TMA Magenta Telekom, AT
84.2.34.81|/Luxcore:5.5.0/|70102||||||
84.2.34.85|/Luxcore:5.5.0/|70102||||||
86.124.203.152|???|0||||||
90.64.132.72|/Luxcore:5.5.1/|70102|15962|90.64.128.0/17|FR|ripencc|2006-03-02|OSK-DNI Slovakia, SK
91.192.142.191|/Luxcore:5.5.1/|70102|35322|91.192.140.0/22|RO|ripencc|2007-02-23|CARO-AS, RO
91.195.204.105|/Luxcore:5.5.1/|70102|42916|91.195.204.0/23|RU|ripencc|2007-10-15|IT-AS, RU
91.215.251.117|/Luxcore:5.5.0/|70102||||||
92.240.132.17|/Luxcore:5.5.1/|70102|8439|92.240.128.0/20|RU|ripencc|2012-09-05|AIST Togliatti, Russia, RU
92.240.138.21|/Luxcore:5.5.1/|70102|8439|92.240.128.0/20|RU|ripencc|2012-09-05|AIST Togliatti, Russia, RU
94.245.131.166|/Luxcore:5.5.1/|70102|12389|94.245.131.0/24|RU|ripencc|2008-11-07|ROSTELECOM-AS, RU
94.25.179.31|/Luxcore:5.5.1/|70102|25159|94.25.176.0/20|RU|ripencc|2008-06-10|SONICDUO-AS, RU
94.25.179.70|/Luxcore:5.5.1/|70102|25159|94.25.176.0/20|RU|ripencc|2008-06-10|SONICDUO-AS, RU
95.165.24.200|/Luxcore:5.5.1/|70102|25513|95.165.0.0/16|RU|ripencc|2009-01-27|ASN-MGTS-USPD, RU
95.174.205.229|/Luxcore:5.5.0/|70102||||||
95.216.228.253|/Luxcore:5.5.0/|70102||||||
95.223.70.84|/Luxcore:5.5.1/|70102|3209|95.223.0.0/16|DE|ripencc|2009-03-24|VODANET International IP-Backbone of Vodafone, DE
98.251.15.200|/Luxcore:5.5.0/|70102||||||
