# https://chainz.cryptoid.info/ and whois results
# LUXCoin
IP Address|Subver|Version|ASN|BGP Prefix|CC|Registry|Allocated|AS Name
103.111.179.12|/Luxcore:5.5.1/|70102||||||
103.137.15.21|/Luxcore:5.5.1/|70102||||||
104.221.117.219|/Luxcore:5.5.1/|70102||||||
104.52.169.192|/Luxcore:5.5.0/|70102|7018|104.48.0.0/12|US|arin|2014-05-06|ATT-INTERNET4, US
108.17.53.39|/Luxcore:5.5.1/|70102||||||
109.254.254.170|/Luxcore:5.5.1/|70102||||||
122.216.24.103|/Luxcore:5.5.1/|70102||||||
123.193.212.237|/Luxcore:5.5.1/|70102||||||
131.93.108.139|/Luxcore:5.5.1/|70102||||||
134.76.38.72|/Luxcore:5.5.1/|70102||||||
136.244.103.146|/Luxcore:5.5.0/|70102|20473|136.244.96.0/20|US|arin|2019-04-08|AS-CHOOPA, US
140.82.25.196|/Luxcore:5.5.0/|70102|20473|140.82.24.0/21|US|arin|2018-03-15|AS-CHOOPA, US
141.101.25.131|/Luxcore:5.5.0/|70102|31272|141.101.0.0/19|UA|ripencc|2011-06-23|WILDPARK-AS ISP WildPark, Ukraine, Nikolaev, UA
141.101.27.190|/Luxcore:5.5.0/|70102|31272|141.101.0.0/19|UA|ripencc|2011-06-23|WILDPARK-AS ISP WildPark, Ukraine, Nikolaev, UA
141.95.55.97|/Luxcore:5.5.1/|70102||||||
144.202.49.240|/Luxcore:5.5.0/|70102|20473|144.202.48.0/20|US|arin|2018-02-05|AS-CHOOPA, US
144.217.81.95|/Luxcore:5.5.0/|70102|16276|144.217.0.0/16|CA|arin|2016-09-07|OVH, FR
144.91.116.146|/Luxcore:5.5.1/|70102||||||
144.91.93.149|???|0|51167|144.91.92.0/23|DE|ripencc|1990-11-20|CONTABO, DE
147.135.86.75|/Luxcore:5.5.0/|70102|16276|147.135.0.0/17|US|arin|2017-03-22|OVH, FR
149.233.55.22|/Luxcore:5.5.1/|70102||||||
155.138.196.176|/Luxcore:5.5.0/|70102|20473|155.138.192.0/19|US|arin|2018-12-05|AS-CHOOPA, US
157.90.99.78|/Luxcore:5.5.0/|70102|24940|157.90.0.0/16|DE|ripencc|1996-12-16|HETZNER-AS, DE
158.58.221.240|/Luxcore:5.5.1/|70102||||||
158.69.112.9|/Luxcore:5.5.0/|70102|16276|158.69.0.0/16|CA|arin|2015-06-15|OVH, FR
162.55.0.83|/Luxcore:5.5.0/|70102||||||
173.212.250.232|/Luxcore:5.5.0/|70102|51167|173.212.248.0/22|DE|ripencc|2009-10-26|CONTABO, DE
173.249.20.167|/Luxcore:5.5.1/|70102||||||
173.249.20.194|/Luxcore:5.5.1/|70102||||||
176.222.223.247|/Luxcore:5.5.1/|70102||||||
177.142.55.10|/Luxcore:5.5.1/|70102||||||
178.32.41.81|???|0|16276|178.32.0.0/15|FR|ripencc|2010-01-19|OVH, FR
178.79.111.207|/Luxcore:5.5.0/|70102|3212|178.79.64.0/18|SI|ripencc|2010-05-07|TELEMACH Broadband Access & Carrier Services, SI
180.74.66.99|/Luxcore:5.5.1/|70102||||||
182.133.249.237|/Luxcore:5.5.1/|70102||||||
182.61.45.203|???|0|38365|182.61.32.0/19|CN|apnic|2010-02-25|BAIDU Beijing Baidu Netcom Science and Technology Co., Ltd., CN
185.209.228.107|/Luxcore:5.5.1/|70102||||||
188.116.92.184|/Luxcore:5.5.1/|70102||||||
188.32.136.195|/Luxcore:5.5.1/|70102||||||
193.239.230.105|/Luxcore:5.5.1/|70102||||||
193.239.230.112|/Luxcore:5.5.1/|70102||||||
193.47.33.43|/Luxcore:5.5.0/|70102|208626|193.47.33.0/24|RU|ripencc|2018-10-23|SERV-TECH, RU
194.207.168.248|/Luxcore:5.5.1/|70102|12390|194.207.160.0/19|GB|ripencc|1996-04-04|KINGSTON-UK-AS, GB
195.13.217.156|/Luxcore:5.5.1/|70102|12578|195.13.128.0/17|LV|ripencc|1998-01-26|APOLLO-AS Latvia, LV
195.154.114.18|/Luxcore:5.5.0/|70102|12876|195.154.0.0/16|FR|ripencc|1996-08-27|Online SAS, FR
195.201.113.5|/Luxcore:5.5.0/|70102|24940|195.201.0.0/16|DE|ripencc|1997-09-22|HETZNER-AS, DE
2.57.169.44|/Luxcore:5.5.1/|70102|7040|2.57.169.0/24|NL|ripencc|2019-03-19|NETMINDERS, CA
206.189.201.139|/Luxcore:5.5.0/|70102|14061|206.189.192.0/20|US|arin|1995-11-15|DIGITALOCEAN-ASN, US
212.14.100.50|/Luxcore:5.5.1/|70102|15704|212.14.100.0/23|ES|ripencc|1999-08-20|AS15704, ES
217.25.231.95|/Luxcore:5.5.1/|70102|6856|217.25.224.0/20|RU|ripencc|2006-05-24|IC-VORONEZH-AS Informsvyaz - Chernozemye, RU
217.88.11.63|/Luxcore:5.5.1/|70102|3320|217.80.0.0/12|DE|ripencc|2000-10-26|DTAG Internet service provider operations, DE
24.159.181.207|/Luxcore:5.5.0/|70102||||||
31.10.151.31|/Luxcore:5.5.1/|70102|6830|31.10.128.0/18|CH|ripencc|2011-04-14|LIBERTYGLOBAL Liberty Global formerly UPC Broadband Holding, aka AORTA, NL
31.187.249.28|/Luxcore:5.5.1/|70102|50266|31.187.128.0/17|NL|ripencc|2011-03-25|TMOBILE-THUIS, NL
37.24.131.128|/Luxcore:5.5.0/|70102|3209|37.24.128.0/17|DE|ripencc|2011-12-22|VODANET International IP-Backbone of Vodafone, DE
37.57.218.61|/Luxcore:5.5.1/|70102|13188|37.57.218.0/24|UA|ripencc|2012-01-13|TRIOLAN, UA
37.9.149.140|/Luxcore:5.5.1/|70102|8439|37.9.144.0/20|RU|ripencc|2011-12-14|AIST Togliatti, Russia, RU
37.9.152.113|/Luxcore:5.5.1/|70102|8439|37.9.144.0/20|RU|ripencc|2011-12-14|AIST Togliatti, Russia, RU
38.70.11.7|/Luxcore:5.5.1/|70102|174|38.0.0.0/8|US|arin|1991-04-16|COGENT-174, US
45.32.220.122|/Luxcore:5.5.0/|70102|20473|45.32.208.0/20|US|arin|2015-02-17|AS-CHOOPA, US
45.33.122.124|/Luxcore:5.5.0/|70102|63949|45.33.112.0/20|US|arin|2015-03-20|LINODE-AP Linode, LLC, US
45.63.12.196|/Luxcore:5.5.0/|70102|20473|45.63.0.0/20|US|arin|2015-01-02|AS-CHOOPA, US
45.76.15.82|/Luxcore:5.5.1/|70102|20473|45.76.0.0/20|US|arin|2015-04-24|AS-CHOOPA, US
45.76.229.186|/Luxcore:5.5.0/|70102|20473|45.76.224.0/21|US|arin|2015-04-24|AS-CHOOPA, US
45.77.104.201|/Luxcore:5.5.0/|70102|20473|45.77.96.0/20|US|arin|2015-04-24|AS-CHOOPA, US
45.77.152.176|/Luxcore:5.5.0/|70102|20473|45.77.144.0/20|US|arin|2015-04-24|AS-CHOOPA, US
45.77.220.37|/Luxcore:5.5.0/|70102|20473|45.77.216.0/21|US|arin|2015-04-24|AS-CHOOPA, US
45.77.253.158|/Luxcore:5.5.0/|70102|20473|45.77.240.0/20|US|arin|2015-04-24|AS-CHOOPA, US
46.23.35.70|/Luxcore:5.5.1/|70102||||||
47.74.3.92|/Luxcore:5.5.0/|70102|45102|47.74.0.0/19|US|arin|2016-03-17|CNNIC-ALIBABA-US-NET-AP Alibaba US Technology Co., Ltd., CN
49.48.227.104|/Luxcore:5.5.1/|70102|45629|49.48.0.0/16|TH|apnic|2010-09-20|JASTEL-NETWORK-TH-AP JasTel Network International Gateway, TH
5.9.88.219|/Luxcore:5.5.0/|70102|24940|5.9.0.0/16|DE|ripencc|2012-04-25|HETZNER-AS, DE
50.35.125.209|/Luxcore:5.5.0/|70102|20055|50.34.0.0/15|US|arin|2010-09-24|AS-WHOLESAIL, US
51.222.28.76|/Luxcore:5.5.1/|70102|16276|51.222.0.0/16|CA|arin|2020-03-31|OVH, FR
51.75.129.200|/Luxcore:5.5.0/|70102|16276|51.75.0.0/16|FR|ripencc|1993-09-01|OVH, FR
51.81.102.199|/Luxcore:5.5.1/|70102|16276|51.81.0.0/17|US|arin|2019-03-11|OVH, FR
51.81.102.213|/Luxcore:5.5.1/|70102|16276|51.81.0.0/17|US|arin|2019-03-11|OVH, FR
60.225.189.128|/Luxcore:5.5.1/|70102|1221|60.224.0.0/13|AU|apnic|2004-07-28|ASN-TELSTRA Telstra Corporation Ltd, AU
62.148.157.190|/Luxcore:5.5.1/|70102|12389|62.148.157.0/24|RU|ripencc|2000-06-26|ROSTELECOM-AS, RU
62.171.132.112|???|0|51167|62.171.132.0/23|DE|ripencc|2000-08-18|CONTABO, DE
65.21.203.156|/Luxcore:5.5.1/|70102||||||
65.21.89.182|/Luxcore:5.5.0/|70102||||||
66.42.95.159|/Luxcore:5.5.1/|70102|20473|66.42.80.0/20|US|arin|2018-05-07|AS-CHOOPA, US
70.34.203.41|/Luxcore:5.5.1/|70102|20473|70.34.192.0/19|US|arin|2021-03-04|AS-CHOOPA, US
71.59.166.33|/Luxcore:5.5.1/|70102|7922|71.56.0.0/13|US|arin|2005-04-29|COMCAST-7922, US
72.239.252.119|/Luxcore:5.5.0/|70102|33363|72.238.0.0/15|US|arin|2005-04-21|BHN-33363, US
72.68.67.27|/Luxcore:5.5.1/|70102|701|72.68.0.0/17|US|arin|2005-06-24|UUNET, US
77.20.84.192|/Luxcore:5.5.0/|70102|3209|77.20.0.0/14|DE|ripencc|2008-04-08|VODANET International IP-Backbone of Vodafone, DE
77.236.80.4|/Luxcore:5.5.1/|70102|13296|77.236.80.0/24|RU|ripencc|2007-01-25|INNOR-AS, RU
77.78.22.179|/Luxcore:5.5.1/|70102|34569|77.78.0.0/18|BG|ripencc|2007-02-27|NETWORX-BG Online Direct, BG
77.78.23.237|/Luxcore:5.5.0/|70102|34569|77.78.0.0/18|BG|ripencc|2007-02-27|NETWORX-BG Online Direct, BG
80.146.195.200|/Luxcore:5.5.0/|70102|3320|80.144.0.0/13|DE|ripencc|2001-08-06|DTAG Internet service provider operations, DE
80.232.243.24|/Luxcore:5.5.1/|70102|12578|80.232.128.0/17|LV|ripencc|2001-10-03|APOLLO-AS Latvia, LV
80.80.194.2|/Luxcore:5.5.1/|70102|40993|80.80.192.0/21|RU|ripencc|2008-10-15|ALTAIRTULA-AS former LLC Altair, RU
81.10.148.203|/Luxcore:5.5.1/|70102|12605|81.10.128.0/17|AT|ripencc|2002-04-16|LIWEST-AT Linz, Austria, AT
81.240.67.217|/Luxcore:5.5.0/|70102|5432|81.240.0.0/14|BE|ripencc|2002-11-29|PROXIMUS-ISP-AS, BE
81.3.13.182|/Luxcore:5.5.1/|70102|24679|81.3.0.0/18|DE|ripencc|2002-04-08|SSERV-AS, DE
81.3.13.187|/Luxcore:5.5.1/|70102|24679|81.3.0.0/18|DE|ripencc|2002-04-08|SSERV-AS, DE
84.2.34.81|/Luxcore:5.5.0/|70102|15545|84.2.34.0/23|HU|ripencc|2004-09-17|MT-DC-AS EU. Hungary, HU
84.2.34.85|/Luxcore:5.5.0/|70102||||||
86.124.203.152|???|0|8708|86.120.0.0/13|RO|ripencc|2005-03-16|RCS-RDS 73-75 Dr. Staicovici, RO
88.99.17.41|/Luxcore:5.5.1/|70102|24940|88.99.0.0/16|DE|ripencc|2005-08-03|HETZNER-AS, DE
90.150.253.126|/Luxcore:5.5.1/|70102|12389|90.150.240.0/20|RU|ripencc|2006-12-19|ROSTELECOM-AS, RU
91.192.142.186|/Luxcore:5.5.1/|70102|35322|91.192.140.0/22|RO|ripencc|2007-02-23|CARO-AS, RO
91.192.142.187|/Luxcore:5.5.1/|70102|35322|91.192.140.0/22|RO|ripencc|2007-02-23|CARO-AS, RO
91.192.142.191|/Luxcore:5.5.1/|70102|35322|91.192.140.0/22|RO|ripencc|2007-02-23|CARO-AS, RO
91.192.142.206|/Luxcore:5.5.1/|70102|35322|91.192.140.0/22|RO|ripencc|2007-02-23|CARO-AS, RO
91.192.142.21|/Luxcore:5.5.1/|70102|35322|91.192.140.0/22|RO|ripencc|2007-02-23|CARO-AS, RO
91.192.142.232|/Luxcore:5.5.1/|70102|35322|91.192.140.0/22|RO|ripencc|2007-02-23|CARO-AS, RO
91.192.142.233|/Luxcore:5.5.1/|70102|35322|91.192.140.0/22|RO|ripencc|2007-02-23|CARO-AS, RO
91.192.142.234|/Luxcore:5.5.1/|70102|35322|91.192.140.0/22|RO|ripencc|2007-02-23|CARO-AS, RO
91.192.142.235|/Luxcore:5.5.0/|70102|35322|91.192.140.0/22|RO|ripencc|2007-02-23|CARO-AS, RO
91.192.142.245|/Luxcore:5.5.1/|70102|35322|91.192.140.0/22|RO|ripencc|2007-02-23|CARO-AS, RO
91.192.142.249|/Luxcore:5.5.1/|70102|35322|91.192.140.0/22|RO|ripencc|2007-02-23|CARO-AS, RO
91.207.102.12|/Luxcore:5.5.0/|70102|9009|91.207.102.0/23|RO|ripencc|2008-10-09|M247, GB
94.245.129.103|???|0|12389|94.245.128.0/23|RU|ripencc|2008-11-07|ROSTELECOM-AS, RU
94.25.176.9|/Luxcore:5.5.1/|70102|25159|94.25.176.0/20|RU|ripencc|2008-06-10|SONICDUO-AS, RU
95.174.205.229|/Luxcore:5.5.0/|70102|31036|95.174.192.0/19|RU|ripencc|2009-03-25|NEWTELESYSTEMS, RU
95.216.228.253|/Luxcore:5.5.0/|70102||||||
95.223.70.84|/Luxcore:5.5.1/|70102|3209|95.223.0.0/16|DE|ripencc|2009-03-24|VODANET International IP-Backbone of Vodafone, DE
98.251.15.200|/Luxcore:5.5.0/|70102|7922|98.192.0.0/10|US|arin|2007-04-20|COMCAST-7922, US
98.253.143.140|/Luxcore:5.5.1/|70102||||||
