# https://chainz.cryptoid.info/ and whois results
# Pinkcoin
IP Address|Subver|Version|ASN|BGP Prefix|CC|Registry|Allocated|AS Name
102.182.98.181|/Pinkcoin:2.3.1/|60018|37611|102.182.0.0/16|ZA|afrinic|2017-06-02|Afrihost, ZA
107.15.220.153|/Pinkcoin:2.3.1/|60018||||||
108.61.99.30|/Pinkcoin:2.4.0/|60019||||||
118.243.28.238|/Pinkcoin:2.3.1/|60018|4685|118.243.0.0/16|JP|apnic|2007-11-19|ASAHI-NET Asahi Net, JP
125.168.102.65|/Pinkcoin:2.3.1/|60018||||||
133.32.232.141|/Pinkcoin:2.3.1/|60018||||||
134.209.157.244|/Pinkcoin:2.4.0/|60019||||||
134.3.132.43|/Pinkcoin:2.3.1/|60018|3209|134.3.128.0/17|DE|ripencc|2011-11-01|VODANET International IP-Backbone of Vodafone, DE
138.197.129.134|/Pinkcoin:2.4.0/|60019||||||
138.197.133.215|/Pinkcoin:2.4.0/|60019||||||
138.197.151.63|/Pinkcoin:2.3.1/|60018|14061|138.197.144.0/20|US|arin|2016-01-26|DIGITALOCEAN-ASN, US
138.197.153.160|/Pinkcoin:2.3.1/|60018|14061|138.197.144.0/20|US|arin|2016-01-26|DIGITALOCEAN-ASN, US
138.197.171.157|/Pinkcoin:2.4.0/|60019||||||
139.59.85.162|/Pinkcoin:2.4.0/|60019||||||
144.202.21.122|/Pinkcoin:2.3.1/|60018|20473|144.202.16.0/20|US|arin|2018-02-05|AS-CHOOPA, US
159.203.21.175|/Pinkcoin:2.3.1/|60018|14061|159.203.16.0/20|US|arin|2015-08-10|DIGITALOCEAN-ASN, US
159.203.3.159|/Pinkcoin:2.4.0/|60019||||||
159.203.35.83|/Pinkcoin:2.4.0/|60019||||||
159.89.121.46|/Pinkcoin:2.3.1/|60018|14061|159.89.112.0/20|US|arin|2017-07-07|DIGITALOCEAN-ASN, US
160.16.181.149|/Pinkcoin:2.3.1/|60018|9370|160.16.128.0/17|JP|apnic|1992-06-10|SAKURA-B SAKURA Internet Inc., JP
165.227.34.76|/Pinkcoin:2.4.0/|60019||||||
165.227.42.24|/Pinkcoin:2.4.0/|60019||||||
172.251.175.197|/Pinkcoin:2.3.1/|60018|20001|172.248.0.0/14|US|arin|2013-03-13|TWC-20001-PACWEST, US
178.79.84.139|/Pinkcoin:2.3.1/|60018|3212|178.79.64.0/18|SI|ripencc|2010-05-07|TELEMACH Broadband Access & Carrier Services, SI
179.83.127.155|/Pinkcoin:2.3.1/|60018|18881|179.83.96.0/19|BR|lacnic|2013-09-02|TELEFONICA BRASIL S.A, BR
184.58.186.68|/Pinkcoin:2.3.1/|60018|10796|184.58.128.0/17|US|arin|2009-12-08|TWC-10796-MIDWEST, US
188.166.219.69|/Pinkcoin:2.4.0/|60019||||||
190.96.1.19|/Pinkcoin:2.3.1/|60018||||||
199.247.14.142|/Pinkcoin:2.4.0/|60019||||||
206.189.101.95|/Pinkcoin:2.4.0/|60019||||||
216.121.149.209|/Pinkcoin:2.4.0/|60019||||||
217.101.203.236|/Pinkcoin:2.3.1/|60018||||||
24.2.254.54|/Pinkcoin:2.3.1/|60018|7922|24.0.0.0/12|US|arin|2003-10-06|COMCAST-7922, US
24.22.11.166|/Pinkcoin:2.3.1/|60018|7922|24.16.0.0/13|US|arin|2003-10-06|COMCAST-7922, US
3.237.38.55|/Pinkcoin:2.4.0/|60019||||||
31.10.151.31|/Pinkcoin:2.3.1/|60018|6830|31.10.128.0/18|CH|ripencc|2011-04-14|LIBERTYGLOBAL Liberty Global formerly UPC Broadband Holding, aka AORTA, NL
31.178.215.130|/Pinkcoin:2.4.0/|60019||||||
31.20.13.84|/Pinkcoin:2.3.1/|60018|50266|31.20.0.0/16|NL|ripencc|2011-03-25|TMOBILE-THUIS, NL
34.90.96.17|/Pinkcoin:2.3.1/|60018|396982|34.90.96.0/20|US|arin|2018-09-28|GOOGLE-PRIVATE-CLOUD, US
35.180.39.199|/Pinkcoin:2.4.0/|60019||||||
37.119.41.87|/Pinkcoin:2.3.1/|60018|30722|37.119.0.0/17|IT|ripencc|2012-02-10|VODAFONE-IT-ASN, IT
37.153.237.21|/Pinkcoin:2.3.1/|60018|28685|37.153.192.0/18|NL|ripencc|2012-03-13|ASN-ROUTIT, NL
40.115.13.33|/Pinkcoin:2.3.1/|60018||||||
45.32.49.237|/Pinkcoin:2.4.0/|60019||||||
45.63.39.175|/Pinkcoin:2.4.0/|60019||||||
45.63.7.156|/Pinkcoin:2.3.1/|60018|20473|45.63.0.0/20|US|arin|2015-01-02|AS-CHOOPA, US
45.76.125.31|/Pinkcoin:2.4.0/|60019||||||
45.77.36.238|/Pinkcoin:2.4.0/|60019||||||
45.77.6.160|/Pinkcoin:2.4.0/|60019||||||
46.101.235.143|/Pinkcoin:2.3.1/|60018||||||
47.153.152.158|/Pinkcoin:2.3.1/|60018|5650|47.152.0.0/14|US|arin|2015-08-28|FRONTIER-FRTR, US
49.129.86.193|/Pinkcoin:2.3.1/|60018|2518|49.129.0.0/16|JP|apnic|2010-10-14|BIGLOBE BIGLOBE Inc., JP
49.156.243.13|/Pinkcoin:2.3.1/|60018|7679|49.156.192.0/18|JP|apnic|2010-11-26|QTNET QTnet,Inc., JP
50.220.121.211|/Pinkcoin:2.3.1/|60018||||||
60.103.216.18|/Pinkcoin:2.3.1/|60018|17676|60.103.0.0/16|JP|apnic|2004-05-20|GIGAINFRA Softbank BB Corp., JP
62.178.251.35|/Pinkcoin:2.3.1/|60018|8412|62.178.128.0/17|AT|ripencc|2000-09-18|TMA Magenta Telekom, AT
65.21.203.156|/Pinkcoin:2.3.1/|60018||||||
68.131.26.57|/Pinkcoin:2.3.1/|60018||||||
68.76.151.174|/Pinkcoin:2.3.1/|60018|7018|68.76.0.0/15|US|arin|2002-10-15|ATT-INTERNET4, US
70.173.144.118|/Pinkcoin:2.3.1/|60018|22773|70.173.0.0/16|US|arin|2004-07-21|ASN-CXA-ALL-CCI-22773-RDC, US
71.217.203.5|/Pinkcoin:2.3.1/|60018|209|71.217.0.0/16|US|arin|2005-05-06|CENTURYLINK-US-LEGACY-QWEST, US
72.76.234.32|/Pinkcoin:2.3.1/|60018|701|72.76.0.0/16|US|arin|2005-06-24|UUNET, US
73.242.243.113|/Pinkcoin:2.3.1/|60018|7922|73.0.0.0/8|US|arin|2005-04-19|COMCAST-7922, US
73.60.180.154|/Pinkcoin:2.3.1/|60018|7922|73.0.0.0/8|US|arin|2005-04-19|COMCAST-7922, US
74.96.192.6|/Pinkcoin:2.3.1/|60018||||||
75.82.185.108|/Pinkcoin:2.3.1/|60018||||||
78.20.130.207|/Pinkcoin:2.4.0/|60019||||||
78.26.178.235|/Pinkcoin:2.3.1/|60018|34187|78.26.128.0/18|UA|ripencc|2007-08-29|RENOME-AS, UA
83.134.175.52|/Pinkcoin:2.3.1/|60018|5432|83.134.0.0/16|BE|ripencc|2004-01-22|PROXIMUS-ISP-AS, BE
83.221.211.116|/Pinkcoin:2.3.1/|60018||||||
84.196.179.228|/Pinkcoin:2.3.1/|60018|6848|84.192.0.0/13|BE|ripencc|2004-04-21|TELENET-AS, BE
85.248.130.25|/Pinkcoin:2.3.1/|60018|5578|85.248.0.0/16|SK|ripencc|2005-01-20|AS-BENESTRA Bratislava, Slovak Republic, SK
86.157.223.251|/Pinkcoin:2.3.1/|60018||||||
87.81.89.51|/Pinkcoin:2.3.1/|60018||||||
88.111.141.33|/Pinkcoin:2.3.1/|60018||||||
88.198.238.123|/Pinkcoin:2.3.1/|60018||||||
90.66.18.147|/Pinkcoin:2.3.1/|60018||||||
90.80.53.82|/Pinkcoin:2.3.1/|60018||||||
93.115.200.37|/Pinkcoin:2.3.1/|60018||||||
93.147.72.124|/Pinkcoin:2.3.1/|60018||||||
93.42.47.123|/Pinkcoin:2.3.1/|60018||||||
93.66.97.14|/Pinkcoin:2.3.1/|60018||||||
95.179.165.154|/Pinkcoin:2.4.0/|60019||||||
95.217.78.169|/Pinkcoin:2.3.1/|60018||||||
95.82.133.151|/Pinkcoin:2.3.1/|60018||||||
