# https://chainz.cryptoid.info/ and whois results
# PandaCoin
IP Address|Subver|Version|ASN|BGP Prefix|CC|Registry|Allocated|AS Name
1.46.11.203|/Satoshi:0.20.2/Pandacoin:4.10.5/|70015||||||
104.200.16.230|/Satoshi:0.20.2/Pandacoin:4.10.5/|70015||||||
107.4.167.155|/Satoshi:0.20.2/Pandacoin:4.10.5/|70015||||||
110.170.117.110|/Satoshi:0.20.2/Pandacoin:4.10.5/|70015||||||
116.203.114.73|/Satoshi:0.20.2/Pandacoin:4.10.5/|70015||||||
116.3.118.230|/Satoshi:0.20.2/Pandacoin:4.10.5/|70015||||||
139.177.206.116|/Satoshi:0.20.2/Pandacoin:4.10.5/|70015|63949|139.177.200.0/21|US|arin|2021-03-24|LINODE-AP Linode, LLC, US
157.90.155.61|/Satoshi:0.16.3/Pandacoin:4.9.2/|70015|24940|157.90.0.0/16|DE|ripencc|1996-12-16|HETZNER-AS, DE
162.55.185.111|/Satoshi:0.20.2/Pandacoin:4.10.5/|70015|24940|162.55.0.0/16|DE|ripencc|1992-08-03|HETZNER-AS, DE
167.86.118.253|/Satoshi:0.16.3/Pandacoin:4.9.0/|70015|51167|167.86.118.0/23|DE|ripencc|1993-05-14|CONTABO, DE
171.101.53.188|/Satoshi:0.16.3/Pandacoin:4.9.0/|70015|17552|171.101.0.0/18|TH|apnic|2011-03-07|TRUEONLINE-AS-AP True Online, TH
171.96.75.63|/Satoshi:0.20.2/Pandacoin:4.10.5/|70015|17552|171.96.64.0/18|TH|apnic|2011-03-07|TRUEONLINE-AS-AP True Online, TH
172.104.100.25|/Satoshi:0.20.2/Pandacoin:4.10.5/|70015|63949|172.104.96.0/19|US|arin|2015-06-19|LINODE-AP Linode, LLC, US
172.104.178.96|/Satoshi:0.20.2/Pandacoin:4.10.5/|70015|63949|172.104.160.0/19|US|arin|2015-06-19|LINODE-AP Linode, LLC, US
173.254.204.118|/Satoshi:0.20.2/Pandacoin:4.10.5/|70015|8100|173.254.192.0/18|US|arin|2010-10-19|ASN-QUADRANET-GLOBAL, US
176.58.123.119|/Satoshi:0.20.2/Pandacoin:4.10.5/|70015|63949|176.58.96.0/19|US|ripencc|2011-06-06|LINODE-AP Linode, LLC, US
188.167.65.13|/Satoshi:0.20.2/Pandacoin:4.10.5/|70015|6830|188.167.0.0/17|SK|ripencc|2009-06-11|LIBERTYGLOBAL Liberty Global formerly UPC Broadband Holding, aka AORTA, NL
188.2.142.215|/Satoshi:0.20.2/Pandacoin:4.10.5/|70015|31042|188.2.128.0/17|RS|ripencc|2009-02-12|SERBIA-BROADBAND-AS Serbia BroadBand-Srpske Kablovske mreze d.o.o., RS
188.79.102.49|/Satoshi:0.20.2/Pandacoin:4.10.5/|70015||||||
194.195.215.117|/Satoshi:0.20.2/Pandacoin:4.10.5/|70015|63949|194.195.208.0/21|US|ripencc|1995-09-14|LINODE-AP Linode, LLC, US
213.161.21.113|/Satoshi:0.20.2/Pandacoin:4.10.5/|70015|3212|213.161.0.0/19|SI|ripencc|1999-12-23|TELEMACH Broadband Access & Carrier Services, SI
213.55.220.41|/Satoshi:0.16.3/Pandacoin:4.9.1/|70015|15796|213.55.128.0/17|CH|ripencc|2000-10-12|SALT-, CH
27.55.87.33|/Satoshi:0.20.2/Pandacoin:4.10.5/|70015|132061|27.55.87.0/24|TH|apnic|2010-03-19|REALMOVE-AS-AP Realmove Company Limited, TH
45.195.12.110|/Satoshi:0.20.2/Pandacoin:4.10.5/|70015|40065|45.195.12.0/24|MU|afrinic|2014-12-01|CNSERVERS, US
45.79.176.81|/Satoshi:0.16.3/Pandacoin:4.9.1/|70015|63949|45.79.176.0/20|US|arin|2015-04-29|LINODE-AP Linode, LLC, US
47.241.103.99|/Satoshi:0.20.2/Pandacoin:4.10.5/|70015|45102|47.241.0.0/17|US|arin|2016-04-15|ALIBABA-CN-NET Alibaba US Technology Co., Ltd., CN
49.237.12.80|/Satoshi:0.20.2/Pandacoin:4.10.5/|70015|132618|49.237.12.0/24|TH|apnic|2010-12-06|REALFUTURE-AS-AP Real Future Company Limited, TH
49.237.32.207|/Satoshi:0.20.2/Pandacoin:4.10.5/|70015|7470|49.237.0.0/16|TH|apnic|2010-12-06|TRUEINTERNET-AS-AP TRUE INTERNET Co.,Ltd., TH
65.21.152.187|/Satoshi:0.16.3/Pandacoin:4.9.2/|70015|24940|65.21.0.0/16|DE|ripencc|2001-09-26|HETZNER-AS, DE
70.80.210.130|/Satoshi:0.20.2/Pandacoin:4.10.5/|70015|5769|70.80.192.0/18|CA|arin|2004-07-14|VIDEOTRON, CA
71.81.180.241|/Satoshi:0.20.2/Pandacoin:4.10.5/|70015|20115|71.81.176.0/21|US|arin|2005-05-19|CHARTER-20115, US
73.52.89.135|/Satoshi:0.20.2/Pandacoin:4.10.5/|70015|7922|73.0.0.0/8|US|arin|2005-04-19|COMCAST-7922, US
80.220.246.228|/Satoshi:0.20.2/Pandacoin:4.10.5/|70015|1759|80.220.0.0/14|FI|ripencc|2002-03-27|TSF-IP-CORE Telia Finland Oyj, FI
81.141.141.216|/Satoshi:0.20.2/Pandacoin:4.10.5/|70015|2856|81.128.0.0/12|GB|ripencc|2002-07-25|BT-UK-AS BTnet UK Regional network, GB
84.71.223.175|/Satoshi:0.20.2/Pandacoin:4.10.5/|70015|5378|84.64.0.0/13|GB|ripencc|2004-03-15|Vodafone, GB
87.100.216.147|/Satoshi:0.20.2/Pandacoin:4.10.5/|70015|16086|87.100.128.0/17|FI|ripencc|2005-09-13|DNA, FI
94.209.106.58|/Satoshi:0.16.3/Pandacoin:4.9.0/|70015|33915|94.208.0.0/14|NL|ripencc|2008-07-22|TNF-AS, NL
94.30.19.185|/Satoshi:0.20.2/Pandacoin:4.10.5/|70015||||||
95.179.149.202|/Satoshi:0.20.2/Pandacoin:4.10.5/|70015|20473|95.179.144.0/20|US|ripencc|2009-01-22|AS-CHOOPA, US
95.217.77.209|/Satoshi:0.20.2/Pandacoin:4.10.5/|70015|24940|95.217.0.0/16|DE|ripencc|2009-02-24|HETZNER-AS, DE
