# https://chainz.cryptoid.info/ and whois results
# PandaCoin
IP Address|Subver|Version|ASN|BGP Prefix|CC|Registry|Allocated|AS Name
1.47.29.56|/Satoshi:0.16.3/Pandacoin:4.9.0/|70015||||||
101.109.84.103|/Satoshi:0.20.2/Pandacoin:4.10.5/|70015||||||
104.200.16.230|/Satoshi:0.20.2/Pandacoin:4.10.5/|70015||||||
109.255.235.231|/Satoshi:0.16.3/Pandacoin:4.9.1/|70015||||||
109.93.56.215|/Satoshi:0.20.2/Pandacoin:4.10.5/|70015||||||
110.170.117.113|/Satoshi:0.16.3/Pandacoin:4.9.0/|70015||||||
115.87.35.49|/Satoshi:0.20.2/Pandacoin:4.10.5/|70015||||||
118.174.170.170|/Satoshi:0.20.2/Pandacoin:4.10.5/|70015|23969|118.174.170.0/24|TH|apnic|2007-10-08|TOT-NET TOT Public Company Limited, TH
124.122.77.248|/Satoshi:0.20.2/Pandacoin:4.10.5/|70015||||||
125.79.80.233|/Satoshi:0.20.2/Pandacoin:4.10.5/|70015||||||
139.177.206.116|/Satoshi:0.20.2/Pandacoin:4.10.5/|70015||||||
144.217.103.74|/Satoshi:0.20.2/Pandacoin:4.10.5/|70015||||||
157.90.155.61|/Satoshi:0.16.3/Pandacoin:4.9.2/|70015||||||
161.97.75.8|/Satoshi:0.20.2/Pandacoin:4.10.5/|70015||||||
171.101.165.28|/Satoshi:0.20.2/Pandacoin:4.10.5/|70015||||||
172.104.100.25|/Satoshi:0.20.2/Pandacoin:4.10.5/|70015||||||
172.245.245.8|/Satoshi:0.20.2/Pandacoin:4.10.5/|70015|36352|172.245.244.0/22|US|arin|2013-04-22|AS-COLOCROSSING, US
172.58.79.255|/Satoshi:0.16.3/Pandacoin:4.9.0/|70015||||||
173.254.204.118|/Satoshi:0.20.2/Pandacoin:4.10.5/|70015|8100|173.254.192.0/18|US|arin|2010-10-19|ASN-QUADRANET-GLOBAL, US
176.58.123.119|/Satoshi:0.20.2/Pandacoin:4.10.5/|70015||||||
178.198.132.125|/Satoshi:0.20.2/Pandacoin:4.10.5/|70015||||||
179.66.201.242|/Satoshi:0.20.2/Pandacoin:4.10.5/|70015||||||
179.66.78.11|/Satoshi:0.16.3/Pandacoin:4.9.0/|70015||||||
183.27.48.187|/Satoshi:0.20.2/Pandacoin:4.10.5/|70015||||||
185.117.74.45|/Satoshi:0.16.3/Pandacoin:4.9.0/|70015||||||
185.220.100.255|/Satoshi:0.16.3/Pandacoin:4.9.0/|70015|205100|185.220.100.0/24|DE|ripencc|2017-09-12|F3NETZE, DE
188.2.142.215|/Satoshi:0.20.2/Pandacoin:4.10.5/|70015||||||
194.195.215.117|/Satoshi:0.20.2/Pandacoin:4.10.5/|70015||||||
198.188.4.4|/Satoshi:0.16.3/Pandacoin:4.9.0/|70015||||||
2.205.44.51|/Satoshi:0.20.2/Pandacoin:4.10.5/|70015||||||
2.9.209.16|/Satoshi:0.16.3/Pandacoin:4.9.1/|70015||||||
213.161.21.113|/Satoshi:0.20.2/Pandacoin:4.10.5/|70015|3212|213.161.0.0/19|SI|ripencc|1999-12-23|TELEMACH Broadband Access & Carrier Services, SI
223.24.163.25|/Satoshi:0.20.2/Pandacoin:4.10.5/|70015|132061|223.24.163.0/24|TH|apnic|2010-08-10|REALMOVE-AS-AP Realmove Company Limited, TH
27.55.66.180|/Satoshi:0.20.2/Pandacoin:4.10.5/|70015||||||
27.55.93.240|/Satoshi:0.16.3/Pandacoin:4.9.0/|70015||||||
31.223.221.93|/Satoshi:0.16.3/Pandacoin:4.9.0/|70015||||||
37.120.150.114|/Satoshi:0.20.2/Pandacoin:4.10.5/|70015||||||
37.195.2.137|/Satoshi:0.16.3/Pandacoin:4.9.0/|70015||||||
45.79.190.254|/Satoshi:0.20.2/Pandacoin:4.10.5/|70015||||||
49.228.110.25|/Satoshi:0.16.3/Pandacoin:4.9.1/|70015||||||
49.237.17.104|/Satoshi:0.16.3/Pandacoin:4.9.0/|70015||||||
65.21.152.187|/Satoshi:0.20.2/Pandacoin:4.10.5/|70015||||||
66.175.216.64|/Satoshi:0.20.2/Pandacoin:4.10.5/|70015||||||
70.80.210.130|/Satoshi:0.20.2/Pandacoin:4.10.5/|70015||||||
71.81.180.241|/Satoshi:0.20.2/Pandacoin:4.10.5/|70015|20115|71.81.176.0/21|US|arin|2005-05-19|CHARTER-20115, US
73.219.116.159|/Satoshi:0.20.2/Pandacoin:4.10.5/|70015|7922|73.0.0.0/8|US|arin|2005-04-19|COMCAST-7922, US
73.254.118.233|/Satoshi:0.20.2/Pandacoin:4.10.5/|70015||||||
73.52.89.135|/Satoshi:0.20.2/Pandacoin:4.10.5/|70015||||||
75.150.121.113|/Satoshi:0.20.2/Pandacoin:4.10.5/|70015||||||
76.66.136.4|/Satoshi:0.16.3/Pandacoin:4.9.1/|70015||||||
79.138.52.171|/Satoshi:0.16.3/Pandacoin:4.9.1/|70015||||||
79.155.64.163|/Satoshi:0.20.2/Pandacoin:4.10.4/|70015||||||
80.220.246.228|/Satoshi:0.20.2/Pandacoin:4.10.5/|70015||||||
80.67.220.188|/Satoshi:0.16.3/Pandacoin:4.9.1/|70015||||||
80.67.223.41|/Satoshi:0.16.3/Pandacoin:4.9.1/|70015||||||
84.66.209.73|/Satoshi:0.20.2/Pandacoin:4.10.5/|70015||||||
85.216.148.139|/Satoshi:0.16.3/Pandacoin:4.9.1/|70015||||||
86.191.61.28|/Satoshi:0.20.2/Pandacoin:4.10.5/|70015|2856|86.128.0.0/10|GB|ripencc|2005-02-07|BT-UK-AS BTnet UK Regional network, GB
94.209.106.58|/Satoshi:0.16.3/Pandacoin:4.9.0/|70015||||||
95.146.162.172|/Satoshi:0.20.2/Pandacoin:4.10.5/|70015||||||
95.168.164.219|/Satoshi:0.16.3/Pandacoin:4.9.1/|70015||||||
95.217.77.209|/Satoshi:0.20.2/Pandacoin:4.10.5/|70015||||||
95.239.25.159|/Satoshi:0.16.3/Pandacoin:4.9.1/|70015||||||
96.126.106.42|/Satoshi:0.20.2/Pandacoin:4.10.5/|70015||||||
96.71.184.110|/Satoshi:0.16.3/Pandacoin:4.9.0/|70015||||||
98.41.10.90|/Satoshi:0.20.2/Pandacoin:4.10.5/|70015||||||
