# https://chainz.cryptoid.info/ and whois results
# PandaCoin
IP Address|Subver|Version|ASN|BGP Prefix|CC|Registry|Allocated|AS Name
1.46.3.186|/Satoshi:0.20.2/Pandacoin:4.10.5/|70015||||||
107.181.180.170|/Satoshi:0.20.2/Pandacoin:4.10.5/|70015||||||
108.93.55.246|/Satoshi:0.20.2/Pandacoin:4.10.5/|70015||||||
109.156.184.178|/Satoshi:0.20.2/Pandacoin:4.10.5/|70015||||||
118.175.90.187|/Satoshi:0.20.2/Pandacoin:4.10.5/|70015||||||
139.177.204.161|/Satoshi:0.20.2/Pandacoin:4.10.5/|70015||||||
144.217.103.74|/Satoshi:0.20.2/Pandacoin:4.10.5/|70015||||||
150.107.164.238|/Satoshi:0.20.2/Pandacoin:4.10.5/|70015||||||
157.90.155.61|/Satoshi:0.16.3/Pandacoin:4.9.2/|70015||||||
167.86.118.253|/Satoshi:0.16.3/Pandacoin:4.9.0/|70015||||||
171.101.165.28|/Satoshi:0.20.2/Pandacoin:4.10.5/|70015|17552|171.101.128.0/18|TH|apnic|2011-03-07|TRUEONLINE-AS-AP True Online, TH
171.96.74.161|/Satoshi:0.20.2/Pandacoin:4.10.5/|70015|17552|171.96.64.0/18|TH|apnic|2011-03-07|TRUEONLINE-AS-AP True Online, TH
172.104.178.96|/Satoshi:0.20.2/Pandacoin:4.10.5/|70015|63949|172.104.160.0/19|US|arin|2015-06-19|LINODE-AP Linode, LLC, US
173.230.142.84|/Satoshi:0.16.3/Pandacoin:4.9.2/|70015||||||
176.58.123.119|/Satoshi:0.20.2/Pandacoin:4.10.5/|70015|63949|176.58.96.0/19|US|ripencc|2011-06-06|LINODE-AP Linode, LLC, US
187.54.219.163|/Satoshi:0.20.2/Pandacoin:4.10.5/|70015|8167|187.54.192.0/18|BR|lacnic|2009-03-13|Brasil Telecom SA - Filial Distrito Federal, BR
188.2.142.215|/Satoshi:0.20.2/Pandacoin:4.10.5/|70015|31042|188.2.128.0/17|RS|ripencc|2009-02-12|SERBIA-BROADBAND-AS Serbia BroadBand-Srpske Kablovske mreze d.o.o., RS
194.195.215.117|/Satoshi:0.20.2/Pandacoin:4.10.5/|70015|63949|194.195.208.0/21|US|ripencc|1995-09-14|LINODE-AP Linode, LLC, US
202.129.0.158|/Satoshi:0.16.3/Pandacoin:4.9.0/|70015||||||
213.161.21.113|/Satoshi:0.20.2/Pandacoin:4.10.5/|70015|3212|213.161.0.0/19|SI|ripencc|1999-12-23|TELEMACH Broadband Access & Carrier Services, SI
213.55.220.51|/Satoshi:0.16.3/Pandacoin:4.9.1/|70015||||||
223.24.149.69|/Satoshi:0.20.2/Pandacoin:4.10.5/|70015|132061|223.24.149.0/24|TH|apnic|2010-08-10|REALMOVE-AS-AP Realmove Company Limited, TH
223.24.169.90|/Satoshi:0.20.2/Pandacoin:4.10.5/|70015|132061|223.24.169.0/24|TH|apnic|2010-08-10|REALMOVE-AS-AP Realmove Company Limited, TH
31.200.22.36|/Satoshi:0.16.3/Pandacoin:4.9.1/|70015||||||
45.79.176.81|/Satoshi:0.16.3/Pandacoin:4.9.1/|70015||||||
45.79.190.254|/Satoshi:0.20.2/Pandacoin:4.10.5/|70015|63949|45.79.176.0/20|US|arin|2015-04-29|LINODE-AP Linode, LLC, US
49.12.76.104|/Satoshi:0.20.2/Pandacoin:4.10.5/|70015|24940|49.12.0.0/16|DE|ripencc|2010-10-21|HETZNER-AS, DE
49.228.150.138|/Satoshi:0.20.2/Pandacoin:4.10.5/|70015|133481|49.228.148.0/22|TH|apnic|2010-11-25|AIS-FIBRE-AS-AP AIS Fibre, TH
61.90.22.213|/Satoshi:0.16.3/Pandacoin:4.9.0/|70015||||||
65.21.152.187|/Satoshi:0.16.3/Pandacoin:4.9.2/|70015||||||
66.175.216.64|/Satoshi:0.20.2/Pandacoin:4.10.5/|70015|63949|66.175.216.0/24|US|arin|2012-06-25|LINODE-AP Linode, LLC, US
70.80.210.130|/Satoshi:0.20.2/Pandacoin:4.10.5/|70015|5769|70.80.192.0/18|CA|arin|2004-07-14|VIDEOTRON, CA
73.100.137.137|/Satoshi:0.20.2/Pandacoin:4.10.5/|70015|7922|73.0.0.0/8|US|arin|2005-04-19|COMCAST-7922, US
75.150.121.113|/Satoshi:0.20.2/Pandacoin:4.10.5/|70015|7922|75.144.0.0/13|US|arin|2006-09-25|COMCAST-7922, US
78.109.36.203|/Satoshi:0.20.2/Pandacoin:4.10.5/|70015|13155|78.109.36.0/24|RU|ripencc|2007-07-04|MTS-IRK-AS, RU
80.220.246.228|/Satoshi:0.20.2/Pandacoin:4.10.5/|70015|1759|80.220.0.0/14|FI|ripencc|2002-03-27|TSF-IP-CORE Telia Finland Oyj, FI
84.61.255.71|/Satoshi:0.20.2/Pandacoin:4.10.5/|70015|3209|84.56.0.0/13|DE|ripencc|2004-08-17|VODANET International IP-Backbone of Vodafone, DE
84.71.181.78|/Satoshi:0.20.2/Pandacoin:4.10.5/|70015|5378|84.64.0.0/13|GB|ripencc|2004-03-15|Vodafone, GB
86.100.161.61|/Satoshi:0.20.2/Pandacoin:4.10.5/|70015|39007|86.100.128.0/18|LT|ripencc|2005-05-23|BALTICUM-TV-AS, LT
87.100.216.147|/Satoshi:0.20.2/Pandacoin:4.10.5/|70015|16086|87.100.128.0/17|FI|ripencc|2005-09-13|DNA, FI
89.38.99.188|/Satoshi:0.20.2/Pandacoin:4.10.5/|70015||||||
90.247.120.153|/Satoshi:0.20.2/Pandacoin:4.10.5/|70015||||||
94.30.19.185|/Satoshi:0.20.2/Pandacoin:4.10.5/|70015||||||
95.168.164.215|/Satoshi:0.20.2/Pandacoin:4.10.5/|70015||||||
95.179.149.202|/Satoshi:0.20.2/Pandacoin:4.10.5/|70015||||||
95.217.77.209|/Satoshi:0.20.2/Pandacoin:4.10.5/|70015||||||
96.71.184.110|/Satoshi:0.16.3/Pandacoin:4.9.0/|70015||||||
