# https://chainz.cryptoid.info/ and whois results
# PotCoin
IP Address|Subver|Version|ASN|BGP Prefix|CC|Registry|Allocated|AS Name
104.137.10.72|/Potcoin:0.8.7.2/|70420|33363|104.137.0.0/18|US|arin|2014-06-04|BHN-33363, US
104.42.78.103|/Potcoin:0.8.7.2/|70420|8075|104.40.0.0/13|US|arin|2014-05-07|MICROSOFT-CORP-MSN-AS-BLOCK, US
126.242.223.209|/Potcoin:0.8.7.2/|70420|17676|126.242.0.0/16|JP|apnic|2005-02-08|GIGAINFRA Softbank BB Corp., JP
135.23.42.235|/Potcoin:0.8.7.2/|70420|5645|135.23.0.0/16|CA|arin|2013-05-09|TEKSAVVY, CA
138.199.40.170|/Potcoin:0.8.7.2/|70420|60068|138.199.40.0/23|GB|ripencc|1990-05-23|CDN77 ^_^, GB
139.47.6.62|/Potcoin:0.8.7.2/|70420|15704|139.47.0.0/17|ES|ripencc|1990-06-19|AS15704, ES
157.97.120.18|/Potcoin:0.8.7.2/|70420|9009|157.97.120.0/24|NL|ripencc|1995-07-13|M247, GB
162.197.32.172|/Potcoin:0.8.7.2/|70420|7018|162.192.0.0/12|US|arin|2013-03-01|ATT-INTERNET4, US
162.243.12.248|/WorldcoinFoundation:0.8.6.2/|75000|14061|162.243.0.0/17|US|arin|2013-09-06|DIGITALOCEAN-ASN, US
170.51.201.146|/Potcoin:0.8.7.2/|70420|11664|170.51.201.0/24|AR|lacnic|1994-02-10|Techtel LMDS Comunicaciones Interactivas S.A., AR
172.223.211.52|/Potcoin:0.8.7.2/|70420|20115|172.223.192.0/19|US|arin|2012-06-22|CHARTER-20115, US
173.91.7.192|/Potcoin:0.8.7.2/|70420|10796|173.90.0.0/15|US|arin|2008-09-05|TWC-10796-MIDWEST, US
174.72.185.103|/Potcoin:0.8.7.2/|70420|22773|174.72.128.0/18|US|arin|2009-02-19|ASN-CXA-ALL-CCI-22773-RDC, US
176.148.115.92|/Potcoin:0.8.7.2/|70420|5410|176.128.0.0/10|FR|ripencc|2011-07-06|BOUYGTEL-ISP, FR
176.27.95.202|/Potcoin:0.8.7.2/|70420|5607|176.24.0.0/14|GB|ripencc|2011-05-19|BSKYB-BROADBAND-AS, GB
185.180.14.152|/Potcoin:0.8.7.2/|70420|60068|185.180.14.0/23|CZ|ripencc|2016-12-01|CDN77 ^_^, GB
2.121.105.235|/Potcoin:0.8.7.2/|70420|5607|2.120.0.0/13|GB|ripencc|2010-04-14|BSKYB-BROADBAND-AS, GB
204.102.230.65|/Potcoin:0.8.7.2/|70420|2152|204.102.0.0/16|US|arin|1994-07-15|CSUNET-NW, US
208.66.68.150|/Potcoin:0.8.7.2/|70420|21793|208.66.68.0/22|CA|arin|2006-04-11|GOGAX, CA
212.85.178.81|/Potcoin:0.8.7.2/|70420|3212|212.85.160.0/19|SI|ripencc|2010-07-05|TELEMACH Broadband Access & Carrier Services, SI
24.115.87.12|/Potcoin:0.8.7.2/|70420|3737|24.115.0.0/16|US|arin|2004-10-28|AS-PTD, US
3.90.61.212|/Potcoin:0.8.7.2/|70420|14618|3.80.0.0/12|US|arin|2017-12-20|AMAZON-AES, US
31.10.154.39|/Potcoin:0.8.7.2/|70420|6830|31.10.128.0/18|CH|ripencc|2011-04-14|LIBERTYGLOBAL Liberty Global formerly UPC Broadband Holding, aka AORTA, NL
37.19.210.180|/Potcoin:0.8.7.2/|70420|212238|37.19.210.0/24|GB|ripencc|2011-12-21|CDNEXT, GB
45.27.73.200|/Potcoin:0.8.7.2/|70420|7018|45.16.0.0/12|US|arin|2014-12-11|ATT-INTERNET4, US
46.101.235.143|/Potcoin:0.8.7.2/|70420|14061|46.101.128.0/17|US|ripencc|2010-06-24|DIGITALOCEAN-ASN, US
47.137.74.178|/Potcoin:0.8.7.2/|70420|5650|47.136.0.0/14|US|arin|2015-08-28|FRONTIER-FRTR, US
54.36.166.111|/Potcoin:0.8.7.2/|70420|16276|54.36.0.0/16|FR|ripencc|1992-03-17|OVH, FR
58.104.47.195|/Potcoin:0.8.7.2/|70420|4804|58.104.0.0/16|AU|apnic|2005-04-22|MPX-AS Microplex PTY LTD, AU
64.145.93.181|/Potcoin:0.8.7.2/|70420|33438|64.145.93.0/24|US|arin|2009-01-21|STACKPATH, US
66.153.144.8|/Potcoin:0.8.7.2/|70420|21565|66.153.144.0/24|US|arin|2001-07-20|AS21565, US
66.57.131.102|/Potcoin:0.8.7.2/|70420|11426|66.57.0.0/16|US|arin|2000-12-18|TWC-11426-CAROLINAS, US
67.190.149.50|/Potcoin:0.8.7.2/|70420|7922|67.160.0.0/11|US|arin|2002-12-16|COMCAST-7922, US
68.205.126.13|/Potcoin:0.8.7.2/|70420|33363|68.204.0.0/15|US|arin|2003-01-31|BHN-33363, US
70.32.0.97|???|0|32181|70.32.0.0/21|US|arin|2015-08-06|ASN-GIGENET, US
70.95.53.124|/Potcoin:0.8.7.2/|70420|20001|70.95.0.0/16|US|arin|2004-09-22|TWC-20001-PACWEST, US
74.130.4.245|/Potcoin:0.8.7.2/|70420|10796|74.128.0.0/12|US|arin|2006-04-07|TWC-10796-MIDWEST, US
74.194.156.4|/Potcoin:0.8.7.2/|70420|19108|74.194.128.0/19|US|arin|2006-09-27|SUDDENLINK-COMMUNICATIONS, US
76.29.23.254|/Potcoin:0.8.7.2/|70420|7922|76.16.0.0/12|US|arin|2006-06-28|COMCAST-7922, US
76.69.110.63|/Potcoin:0.8.7.2/|70420|577|76.69.0.0/16|CA|arin|2006-12-04|BACOM, CA
79.197.183.134|/Potcoin:0.8.7.2/|70420|3320|79.192.0.0/10|DE|ripencc|2007-06-06|DTAG Internet service provider operations, DE
82.180.144.232|/Potcoin:0.8.7.2/|70420|9009|82.180.144.0/24|DE|ripencc|2003-10-09|M247, GB
84.90.71.181|/Potcoin:0.8.7.2/|70420|13156|84.90.68.0/22|PT|ripencc|2004-05-12|AS13156 Palmela, PT
86.160.157.93|/Potcoin:0.8.7.2/|70420|2856|86.128.0.0/10|GB|ripencc|2005-02-07|BT-UK-AS BTnet UK Regional network, GB
86.49.112.229|/Potcoin:0.8.7.2/|70420|16019|86.49.0.0/17|CZ|ripencc|2005-04-21|VODAFONE-CZ-AS, CZ
87.171.87.157|/Potcoin:0.8.7.2/|70420|3320|87.128.0.0/10|DE|ripencc|2006-03-30|DTAG Internet service provider operations, DE
87.81.122.22|/Potcoin:0.8.7.2/|70420|5607|87.80.0.0/15|GB|ripencc|2005-05-09|BSKYB-BROADBAND-AS, GB
89.248.170.21|/Potcoin:0.8.7.2/|70420|202425|89.248.170.0/24|GB|ripencc|2006-07-11|INT-NETWORK, SC
89.248.174.2|/Potcoin:0.8.7.2/|70420|202425|89.248.174.0/24|GB|ripencc|2006-07-11|INT-NETWORK, SC
89.44.10.54|/Potcoin:0.8.7.2/|70420|9009|89.44.10.0/24|RO|ripencc|2005-11-29|M247, GB
89.44.10.89|/Potcoin:0.8.7.2/|70420|9009|89.44.10.0/24|RO|ripencc|2005-11-29|M247, GB
91.15.120.111|/Potcoin:0.8.7.2/|70420|3320|91.0.0.0/10|DE|ripencc|2006-07-03|DTAG Internet service provider operations, DE
91.245.131.251|/Potcoin:0.8.7.2/|70420|47914|91.245.128.0/19|RU|ripencc|2012-08-20|CREATIVEDIRECTMARKETINGSOLUTIONS, RU
91.50.235.116|/Potcoin:0.8.7.2/|70420|3320|91.0.0.0/10|DE|ripencc|2006-07-03|DTAG Internet service provider operations, DE
91.52.68.91|/Potcoin:0.8.7.2/|70420|3320|91.0.0.0/10|DE|ripencc|2006-07-03|DTAG Internet service provider operations, DE
94.199.25.18|/Potcoin:0.8.7.2/|70420|34660|94.199.24.0/21|GB|ripencc|2010-07-07|IDAQ-AS Dedicated servers, colocation, hosting., GB
95.217.78.170|/Potcoin:0.8.7.2/|70420|24940|95.217.0.0/16|DE|ripencc|2009-02-24|HETZNER-AS, DE
96.20.183.111|/Potcoin:0.8.7.2/|70420|5769|96.20.128.0/18|CA|arin|2007-10-30|VIDEOTRON, CA
96.61.23.33|/Potcoin:0.8.7.2/|70420|4181|96.61.16.0/21|US|arin|2008-02-21|TDS-AS, US
98.165.24.25|/Potcoin:0.8.7.2/|70420|22773|98.165.0.0/16|US|arin|2007-07-20|ASN-CXA-ALL-CCI-22773-RDC, US
98.245.85.4|/Potcoin:0.8.7.2/|70420|7922|98.192.0.0/10|US|arin|2007-04-20|COMCAST-7922, US
99.100.189.222|/Potcoin:0.8.7.2/|70420|7018|99.96.0.0/13|US|arin|2008-02-25|ATT-INTERNET4, US
