# https://chainz.cryptoid.info/ and whois results
# PotCoin
IP Address|Subver|Version|ASN|BGP Prefix|CC|Registry|Allocated|AS Name
103.107.196.203|/Potcoin:0.8.7.2/|70420||||||
104.244.210.156|/Potcoin:0.8.7.2/|70420||||||
104.42.78.103|/Potcoin:0.8.7.2/|70420||||||
107.198.57.205|/Potcoin:0.8.7.2/|70420||||||
107.2.203.113|/Potcoin:0.8.7.2/|70420||||||
115.164.170.202|/Potcoin:0.8.7.2/|70420||||||
116.90.74.180|/Potcoin:0.8.7.2/|70420||||||
119.76.153.106|/Potcoin:0.8.7.2/|70420||||||
123.204.6.104|/Potcoin:0.8.7.2/|70420||||||
126.3.59.145|/Potcoin:0.8.7.2/|70420||||||
129.107.119.241|/Potcoin:0.8.7.2/|70420||||||
139.47.6.115|/Potcoin:0.8.7.2/|70420||||||
140.186.218.230|/Potcoin:0.8.7.2/|70420||||||
161.81.78.72|/Potcoin:0.8.7.2/|70420||||||
162.197.32.172|/Potcoin:0.8.7.2/|70420||||||
162.243.12.248|/WorldcoinFoundation:0.8.6.2/|75000||||||
172.93.153.147|/Potcoin:0.8.7.2/|70420||||||
173.91.7.192|/Potcoin:0.8.7.2/|70420||||||
174.68.143.246|/Potcoin:0.8.7.2/|70420||||||
176.175.113.86|/Potcoin:0.8.7.2/|70420||||||
176.254.136.35|/Potcoin:0.8.7.2/|70420||||||
178.198.134.136|/Potcoin:0.8.7.2/|70420||||||
185.206.225.245|/Potcoin:0.8.7.2/|70420||||||
192.226.179.237|/Potcoin:0.8.7.2/|70420||||||
193.198.102.23|/Potcoin:0.8.7.2/|70420||||||
198.48.137.38|/Potcoin:0.8.7.2/|70420|5645|198.48.128.0/20|CA|arin|2013-03-04|TEKSAVVY, CA
199.126.170.181|/Potcoin:0.8.7.2/|70420|852|199.126.0.0/16|CA|arin|1994-01-27|TELUS Communications, CA
204.102.230.65|/Potcoin:0.8.7.2/|70420|2152|204.102.0.0/16|US|arin|1994-07-15|CSUNET-NW, US
204.112.176.78|/Potcoin:0.8.7.2/|70420|7122|204.112.0.0/16|CA|arin|1994-08-05|MTS-ASN, CA
208.66.68.150|/Potcoin:0.8.7.2/|70420|21793|208.66.68.0/22|CA|arin|2006-04-11|GOGAX, CA
212.85.178.81|/Potcoin:0.8.7.2/|70420|3212|212.85.160.0/19|SI|ripencc|2010-07-05|TELEMACH Broadband Access & Carrier Services, SI
219.100.37.240|/Potcoin:0.8.7.2/|70420|36599|219.100.37.0/24|JP|apnic|2002-03-07|SOFTETHER-AMERICA, US
24.115.87.12|/Potcoin:0.8.7.2/|70420|3737|24.115.0.0/16|US|arin|2004-10-28|AS-PTD, US
24.137.120.39|/Potcoin:0.8.7.2/|70420|11260|24.137.96.0/19|CA|arin|2004-03-08|EASTLINK-HSI, CA
24.198.174.26|/Potcoin:0.8.7.2/|70420|11351|24.198.128.0/17|US|arin|2001-08-03|TWC-11351-NORTHEAST, US
31.178.215.130|/Potcoin:0.8.7.2/|70420||||||
31.208.161.104|/Potcoin:0.8.7.2/|70420|29518|31.208.0.0/16|SE|ripencc|2011-05-02|BREDBAND2, SE
31.42.253.15|/Potcoin:0.8.7.2/|70420|50060|31.42.224.0/19|RU|ripencc|2011-02-23|ANNET, RU
37.19.213.218|/Potcoin:0.8.7.2/|70420|212238|37.19.212.0/23|GB|ripencc|2011-12-21|CDNEXT, GB
45.141.152.52|/Potcoin:0.8.7.2/|70420|9009|45.141.152.0/24|RO|ripencc|2019-08-15|M247, GB
45.141.152.53|/Potcoin:0.8.7.2/|70420|9009|45.141.152.0/24|RO|ripencc|2019-08-15|M247, GB
45.27.73.200|/Potcoin:0.8.7.2/|70420||||||
46.164.32.189|/Potcoin:0.8.7.2/|70420|21283|46.164.0.0/18|SI|ripencc|2010-12-06|A1SI-AS A1 Slovenija, SI
47.147.81.193|/Potcoin:0.8.7.2/|70420|5650|47.144.0.0/13|US|arin|2015-08-28|FRONTIER-FRTR, US
47.156.124.71|/Potcoin:0.8.7.2/|70420||||||
50.113.0.182|/Potcoin:0.8.7.2/|70420||||||
50.123.137.51|/Potcoin:0.8.7.2/|70420|5650|50.120.0.0/13|US|arin|2011-09-06|FRONTIER-FRTR, US
54.36.166.111|/Potcoin:0.8.7.2/|70420||||||
60.53.63.218|/Potcoin:0.8.7.2/|70420|4788|60.53.0.0/18|MY|apnic|2004-06-07|TMNET-AS-AP TM Net, Internet Service Provider, MY
64.237.231.193|/Potcoin:0.8.7.2/|70420|10396|64.237.228.0/22|PR|arin|2004-06-18|COQUI-NET, PR
65.96.137.46|/Potcoin:0.8.7.2/|70420|7922|65.96.0.0/16|US|arin|2001-01-02|COMCAST-7922, US
67.161.66.187|/Potcoin:0.8.7.2/|70420|7922|67.160.0.0/11|US|arin|2002-12-16|COMCAST-7922, US
67.190.149.50|/Potcoin:0.8.7.2/|70420|7922|67.160.0.0/11|US|arin|2002-12-16|COMCAST-7922, US
68.205.97.213|/Potcoin:0.8.7.2/|70420|33363|68.204.0.0/15|US|arin|2003-01-31|BHN-33363, US
68.47.241.193|/Potcoin:0.8.7.2/|70420|7922|68.32.0.0/11|US|arin|2001-11-29|COMCAST-7922, US
68.67.199.13|/Potcoin:0.8.7.2/|70420|62579|68.67.199.0/24|US|arin|2009-06-23|VIRTUALSHIELD, US
70.120.101.31|/Potcoin:0.8.7.2/|70420|11427|70.120.0.0/17|US|arin|2004-09-17|TWC-11427-TEXAS, US
70.161.135.45|/Potcoin:0.8.7.2/|70420|22773|70.160.0.0/15|US|arin|2004-07-21|ASN-CXA-ALL-CCI-22773-RDC, US
70.55.172.192|/Potcoin:0.8.7.2/|70420|577|70.55.0.0/16|CA|arin|2004-05-10|BACOM, CA
71.68.210.144|/Potcoin:0.8.7.2/|70420|11426|71.68.0.0/14|US|arin|2005-05-16|TWC-11426-CAROLINAS, US
73.176.59.25|/Potcoin:0.8.7.2/|70420|7922|73.0.0.0/8|US|arin|2005-04-19|COMCAST-7922, US
74.130.4.245|/Potcoin:0.8.7.2/|70420|10796|74.128.0.0/12|US|arin|2006-04-07|TWC-10796-MIDWEST, US
74.194.156.4|/Potcoin:0.8.7.2/|70420||||||
74.59.192.25|/Potcoin:0.8.7.2/|70420|5769|74.59.192.0/18|CA|arin|2006-03-02|VIDEOTRON, CA
75.82.185.108|/Potcoin:0.8.7.2/|70420|20001|75.82.0.0/15|US|arin|2006-07-19|TWC-20001-PACWEST, US
76.29.23.254|/Potcoin:0.8.7.2/|70420|7922|76.16.0.0/12|US|arin|2006-06-28|COMCAST-7922, US
77.140.213.179|/Potcoin:0.8.7.2/|70420||||||
77.191.236.84|/Potcoin:0.8.7.2/|70420|6805|77.176.0.0/12|DE|ripencc|2006-11-17|TDDE-ASN1, DE
79.217.217.168|/Potcoin:0.8.7.2/|70420|3320|79.192.0.0/10|DE|ripencc|2007-06-06|DTAG Internet service provider operations, DE
79.248.110.33|/Potcoin:0.8.7.2/|70420|3320|79.192.0.0/10|DE|ripencc|2007-06-06|DTAG Internet service provider operations, DE
80.134.132.203|/Potcoin:0.8.7.2/|70420|3320|80.128.0.0/12|DE|ripencc|2001-08-06|DTAG Internet service provider operations, DE
80.134.79.110|/Potcoin:0.8.7.2/|70420|3320|80.128.0.0/12|DE|ripencc|2001-08-06|DTAG Internet service provider operations, DE
81.84.205.62|/Potcoin:0.8.7.2/|70420||||||
82.197.215.182|/Potcoin:0.8.7.2/|70420||||||
85.61.134.186|/Potcoin:0.8.7.2/|70420||||||
86.169.53.101|/Potcoin:0.8.7.2/|70420||||||
86.49.112.229|/Potcoin:0.8.7.2/|70420||||||
87.123.244.123|/Potcoin:0.8.7.2/|70420||||||
87.171.80.30|/Potcoin:0.8.7.2/|70420||||||
87.95.100.128|/Potcoin:0.8.7.2/|70420||||||
88.5.140.76|/Potcoin:0.8.7.2/|70420||||||
89.12.129.5|/Potcoin:0.8.7.2/|70420||||||
89.142.92.200|/Potcoin:0.8.7.2/|70420||||||
91.113.20.3|/Potcoin:0.8.7.2/|70420||||||
91.113.79.155|/Potcoin:0.8.7.2/|70420||||||
95.217.78.170|/Potcoin:0.8.7.2/|70420||||||
95.91.239.57|/Potcoin:0.8.7.2/|70420||||||
95.91.241.202|/Potcoin:0.8.7.2/|70420||||||
96.20.183.111|/Potcoin:0.8.7.2/|70420||||||
98.245.85.4|/Potcoin:0.8.7.2/|70420||||||
98.29.7.75|/Potcoin:0.8.7.2/|70420||||||
